Version 4.1
SHEET 1 880 1376
WIRE -1664 288 -1664 240
WIRE -1312 304 -1520 304
WIRE -1200 304 -1312 304
WIRE -1520 336 -1520 304
WIRE -1488 336 -1520 336
WIRE -1392 336 -1424 336
WIRE -1520 368 -1520 336
WIRE -1488 368 -1520 368
WIRE -2080 400 -2176 400
WIRE -1984 400 -2000 400
WIRE -1968 400 -1984 400
WIRE -1856 400 -1888 400
WIRE -1808 400 -1856 400
WIRE -1664 400 -1664 352
WIRE -1664 400 -1728 400
WIRE -1488 400 -1664 400
WIRE -1488 432 -1520 432
WIRE -1984 464 -1984 400
WIRE -1856 512 -1856 400
WIRE -1696 512 -1856 512
WIRE -1312 512 -1312 304
WIRE -1312 512 -1632 512
WIRE -1984 576 -1984 528
WIRE -1856 720 -1856 672
WIRE -1376 800 -1568 800
WIRE -1248 800 -1376 800
WIRE -1568 832 -1568 800
WIRE -1536 832 -1568 832
WIRE -1440 832 -1472 832
WIRE -2144 864 -2288 864
WIRE -2016 864 -2064 864
WIRE -1968 864 -2016 864
WIRE -1856 864 -1856 784
WIRE -1856 864 -1888 864
WIRE -1808 864 -1856 864
WIRE -1696 864 -1728 864
WIRE -1536 864 -1696 864
WIRE -2016 896 -2016 864
WIRE -1696 896 -1696 864
WIRE -1536 896 -1584 896
WIRE -1536 928 -1568 928
WIRE -2016 1008 -2016 960
WIRE -1856 1008 -1856 864
WIRE -1808 1008 -1856 1008
WIRE -1696 1008 -1696 960
WIRE -1696 1008 -1728 1008
WIRE -1376 1008 -1376 800
WIRE -1376 1008 -1696 1008
FLAG -2064 0 VIN
FLAG -2064 80 0
FLAG -1952 0 V+
FLAG -1872 0 V-
FLAG -1952 80 0
FLAG -1872 80 0
FLAG -1392 336 V+
FLAG -1520 432 V-
FLAG -1200 304 VOUT1
FLAG -1664 240 0
FLAG -2176 400 VIN
FLAG -1984 576 0
FLAG -1440 832 V+
FLAG -1568 928 V-
FLAG -1248 800 VOUT2
FLAG -1856 672 0
FLAG -2288 864 VIN
FLAG -1584 896 0
FLAG -2016 1008 0
SYMBOL voltage -2064 -16 R0
WINDOW 123 24 44 Left 2
WINDOW 39 0 0 Left 0
WINDOW 3 24 72 Left 2
SYMATTR Value2 AC 1
SYMATTR Value ""
SYMATTR InstName V4
SYMBOL voltage -1952 -16 R0
SYMATTR InstName V5
SYMATTR Value 15
SYMBOL voltage -1872 -16 R0
SYMATTR InstName V6
SYMATTR Value -15
SYMBOL cap -2000 464 R0
SYMATTR InstName C1
SYMATTR Value 11.1n
SYMBOL cap -1696 528 R270
WINDOW 0 32 32 VTop 2
WINDOW 3 0 32 VBottom 2
SYMATTR InstName C2
SYMATTR Value 28.2n
SYMBOL cap -1680 288 R0
SYMATTR InstName C3
SYMATTR Value 1.61n
SYMBOL res -1984 384 R90
WINDOW 0 0 56 VBottom 2
WINDOW 3 32 56 VTop 2
SYMATTR InstName R1
SYMATTR Value 1k
SYMBOL res -1872 384 R90
WINDOW 0 0 56 VBottom 2
WINDOW 3 32 56 VTop 2
SYMATTR InstName R2
SYMATTR Value 1k
SYMBOL res -1712 384 R90
WINDOW 0 0 56 VBottom 2
WINDOW 3 32 56 VTop 2
SYMATTR InstName R3
SYMATTR Value 1k
SYMBOL AudioProject\\NE5532 -1456 384 R0
SYMATTR InstName U1
SYMBOL cap -1872 720 R0
SYMATTR InstName C4
SYMATTR Value 10n
SYMBOL res -1872 848 R90
WINDOW 0 0 56 VBottom 2
WINDOW 3 32 56 VTop 2
SYMATTR InstName R4
SYMATTR Value 1.2k
SYMBOL res -1712 848 R90
WINDOW 0 0 56 VBottom 2
WINDOW 3 32 56 VTop 2
SYMATTR InstName R5
SYMATTR Value 1.1k
SYMBOL AudioProject\\NE5532 -1504 880 R0
SYMATTR InstName U2
SYMBOL res -1712 992 R90
WINDOW 0 0 56 VBottom 2
WINDOW 3 32 56 VTop 2
SYMATTR InstName R6
SYMATTR Value 3.9k
SYMBOL cap -1712 896 R0
SYMATTR InstName C5
SYMATTR Value 680p
SYMBOL res -2048 848 R90
WINDOW 0 0 56 VBottom 2
WINDOW 3 32 56 VTop 2
SYMATTR InstName R7
SYMATTR Value 2.7k
SYMBOL cap -2032 896 R0
SYMATTR InstName C6
SYMATTR Value 10n
TEXT -1720 0 Left 2 !.ac oct 100 1u 10G
TEXT -1720 24 Left 2 ;.ac oct 100 1k 10k
