Version 4.1
SHEET 1 1856 2532
WIRE 0 -64 -144 -64
WIRE 128 -64 64 -64
WIRE -144 -16 -144 -64
WIRE 32 -16 -144 -16
WIRE -32 16 -64 16
WIRE 32 16 32 -16
WIRE 128 48 128 -64
WIRE 128 48 32 48
WIRE 176 48 128 48
WIRE 368 48 256 48
WIRE -288 64 -448 64
WIRE -144 64 -144 -16
WIRE -144 64 -208 64
WIRE 96 80 32 80
WIRE 368 80 368 48
WIRE 64 112 32 112
WIRE -448 176 -448 64
WIRE -288 176 -448 176
WIRE -144 176 -208 176
WIRE 176 192 112 192
WIRE 368 192 368 160
WIRE 368 192 240 192
WIRE -144 224 -144 176
WIRE -144 224 -320 224
WIRE 368 240 368 192
WIRE 368 240 208 240
WIRE 544 240 368 240
WIRE 672 240 624 240
WIRE 736 240 672 240
WIRE 864 240 816 240
WIRE -320 256 -320 224
WIRE -224 256 -256 256
WIRE 208 272 208 240
WIRE 304 272 272 272
WIRE 864 272 864 240
WIRE 864 272 800 272
WIRE 1040 272 864 272
WIRE -624 288 -736 288
WIRE -448 288 -448 176
WIRE -448 288 -544 288
WIRE -320 288 -448 288
WIRE -144 304 -144 224
WIRE -112 304 -144 304
WIRE 0 304 -32 304
WIRE 112 304 112 192
WIRE 112 304 80 304
WIRE 208 304 112 304
WIRE 800 304 800 272
WIRE 896 304 864 304
WIRE -320 320 -448 320
WIRE 208 336 144 336
WIRE 672 336 672 240
WIRE 800 336 672 336
WIRE -320 352 -352 352
WIRE 208 368 176 368
WIRE 544 368 512 368
WIRE 672 368 624 368
WIRE 800 368 672 368
WIRE 800 400 768 400
WIRE 672 416 672 368
WIRE -448 432 -448 320
WIRE -192 432 -448 432
WIRE 48 432 -112 432
WIRE 368 432 368 240
WIRE 368 432 128 432
WIRE -448 480 -448 432
WIRE 672 512 672 496
WIRE -448 592 -448 560
FLAG -736 288 VIN
FLAG -736 -352 VIN
FLAG -736 -272 0
FLAG -448 592 0
FLAG -144 64 VLP
FLAG 368 240 VBP
FLAG -144 304 VHP
FLAG 672 512 0
FLAG 512 368 VIN
FLAG -608 -352 VCC+
FLAG -528 -352 VCC-
FLAG -608 -272 0
FLAG -528 -272 0
FLAG -64 16 VCC+
FLAG 64 112 VCC-
FLAG 96 80 0
FLAG -224 256 VCC+
FLAG -352 352 VCC-
FLAG 304 272 VCC+
FLAG 176 368 VCC-
FLAG 144 336 0
FLAG 896 304 VCC+
FLAG 768 400 VCC-
FLAG 1040 272 VOUT
SYMBOL res -528 272 R90
WINDOW 0 0 56 VBottom 2
WINDOW 3 32 56 VTop 2
SYMATTR InstName RIN1
SYMATTR Value 1k
SYMBOL voltage -736 -368 R0
WINDOW 123 24 44 Left 2
WINDOW 39 0 0 Left 0
SYMATTR Value2 AC 1
SYMATTR InstName V1
SYMATTR Value ""
SYMBOL res -192 160 R90
WINDOW 0 0 56 VBottom 2
WINDOW 3 32 56 VTop 2
SYMATTR InstName RF1
SYMATTR Value 3k
SYMBOL res 96 288 R90
WINDOW 0 0 56 VBottom 2
WINDOW 3 32 56 VTop 2
SYMATTR InstName POT1A
SYMATTR Value {R}
SYMBOL cap 240 176 R90
WINDOW 0 0 32 VBottom 2
WINDOW 3 32 32 VTop 2
SYMATTR InstName C1
SYMATTR Value 10n
SYMBOL res 272 32 R90
WINDOW 0 0 56 VBottom 2
WINDOW 3 32 56 VTop 2
SYMATTR InstName POT1B
SYMATTR Value {R}
SYMBOL cap 0 -80 M90
WINDOW 0 0 32 VBottom 2
WINDOW 3 32 32 VTop 2
SYMATTR InstName C2
SYMATTR Value 10n
SYMBOL res -192 48 R90
WINDOW 0 0 56 VBottom 2
WINDOW 3 32 56 VTop 2
SYMATTR InstName RF2
SYMATTR Value 3k
SYMBOL res -96 416 R90
WINDOW 0 0 56 VBottom 2
WINDOW 3 32 56 VTop 2
SYMATTR InstName POT2
SYMATTR Value {RQ}
SYMBOL res -464 464 R0
SYMATTR InstName RG1
SYMATTR Value 1k
SYMBOL res 640 352 R90
WINDOW 0 0 56 VBottom 2
WINDOW 3 32 56 VTop 2
SYMATTR InstName R4
SYMATTR Value 1k
SYMBOL res 640 224 R90
WINDOW 0 0 56 VBottom 2
WINDOW 3 32 56 VTop 2
SYMATTR InstName R5
SYMATTR Value 1k
SYMBOL res 656 400 R0
SYMATTR InstName R6
SYMATTR Value 1k
SYMBOL res 832 224 R90
WINDOW 0 0 56 VBottom 2
WINDOW 3 32 56 VTop 2
SYMATTR InstName R7
SYMATTR Value 1k
SYMBOL res 352 64 R0
SYMATTR InstName R1
SYMATTR Value 1k
SYMBOL res -16 288 R90
WINDOW 0 0 56 VBottom 2
WINDOW 3 32 56 VTop 2
SYMATTR InstName R2
SYMATTR Value 1k
SYMBOL res 144 416 R90
WINDOW 0 0 56 VBottom 2
WINDOW 3 32 56 VTop 2
SYMATTR InstName R3
SYMATTR Value 660
SYMBOL voltage -608 -368 R0
SYMATTR InstName V2
SYMATTR Value 15
SYMBOL voltage -528 -368 R0
SYMATTR InstName V3
SYMATTR Value -15
SYMBOL AudioProject\\TL072 0 64 M0
SYMATTR InstName U5
SYMBOL AudioProject\\TL072 -288 304 R0
SYMATTR InstName U1
SYMBOL AudioProject\\TL072 240 320 R0
SYMATTR InstName U2
SYMBOL AudioProject\\TL072 832 352 R0
SYMATTR InstName U3
TEXT 656 -376 Left 2 !.ac oct 100 10 100k
TEXT 656 -344 Left 2 !.step param pos1 list 0 0.9 1\n.step param pos2 0 1 0.5
TEXT 656 -280 Left 2 !.param R = (((1-pos1) * 100k) + 20)\n.param RQ = ((pos2 * 5k) + 20)
