Version 4.1
SHEET 1 1412 680
WIRE 656 -560 416 -560
WIRE 768 -560 656 -560
WIRE 416 -512 416 -560
WIRE 496 -512 416 -512
WIRE 608 -512 560 -512
WIRE 416 -480 416 -512
WIRE 496 -480 416 -480
WIRE -320 -448 -400 -448
WIRE -272 -448 -320 -448
WIRE -128 -448 -192 -448
WIRE 0 -448 -48 -448
WIRE 496 -448 0 -448
WIRE 656 -432 656 -560
WIRE 496 -416 448 -416
WIRE -320 -400 -320 -448
WIRE 0 -400 0 -448
WIRE -320 -288 -320 -336
WIRE -192 -288 -320 -288
WIRE 0 -288 0 -336
WIRE 0 -288 -128 -288
WIRE 80 -288 0 -288
WIRE 320 -288 160 -288
WIRE 656 -208 656 -352
WIRE 656 -208 400 -208
WIRE -320 -112 -320 -288
WIRE -272 -112 -320 -112
WIRE -48 -112 -192 -112
WIRE 112 -112 32 -112
WIRE 176 -112 112 -112
WIRE 320 -112 320 -288
WIRE 320 -112 256 -112
WIRE 656 -80 656 -208
WIRE 112 -16 112 -112
WIRE 400 -16 400 -208
WIRE 400 -16 112 -16
WIRE 656 144 656 0
FLAG -256 -848 VIN
FLAG -256 -768 0
FLAG -128 -768 0
FLAG -32 -768 0
FLAG -128 -848 V+
FLAG -32 -848 V-
FLAG 448 -416 V-
FLAG 608 -512 V+
FLAG 656 144 0
FLAG 768 -560 VOUT
FLAG -400 -448 VIN
SYMBOL voltage -256 -864 R0
WINDOW 123 24 44 Left 2
WINDOW 39 0 0 Left 0
SYMATTR Value2 AC 1
SYMATTR InstName V1
SYMATTR Value ""
SYMBOL voltage -128 -864 R0
SYMATTR InstName V2
SYMATTR Value 15
SYMBOL voltage -32 -864 R0
SYMATTR InstName V3
SYMATTR Value -15
SYMBOL AudioProject\\NE5532 528 -464 R0
SYMATTR InstName U1
SYMBOL res -176 -464 R90
WINDOW 0 0 56 VBottom 2
WINDOW 3 32 56 VTop 2
SYMATTR InstName R31
SYMATTR Value 100k
SYMBOL res -32 -464 R90
WINDOW 0 0 56 VBottom 2
WINDOW 3 32 56 VTop 2
SYMATTR InstName R32
SYMATTR Value 39k
SYMBOL cap -336 -400 R0
SYMATTR InstName C1
SYMATTR Value 220n
SYMBOL cap -16 -400 R0
SYMATTR InstName C3
SYMATTR Value 220n
SYMBOL cap -128 -304 R90
WINDOW 0 0 32 VBottom 2
WINDOW 3 32 32 VTop 2
SYMATTR InstName C2
SYMATTR Value 220n
SYMBOL res 64 -272 R270
WINDOW 0 32 56 VTop 2
WINDOW 3 0 56 VBottom 2
SYMATTR InstName R2
SYMATTR Value 1k
SYMBOL res -176 -128 R90
WINDOW 0 0 56 VBottom 2
WINDOW 3 32 56 VTop 2
SYMATTR InstName R1
SYMATTR Value 12k
SYMBOL res -64 -96 R270
WINDOW 0 32 56 VTop 2
WINDOW 3 0 56 VBottom 2
SYMATTR InstName RG1
SYMATTR Value {10k*(1-posF)+20}
SYMBOL res 272 -96 M270
WINDOW 0 32 56 VTop 2
WINDOW 3 0 56 VBottom 2
SYMATTR InstName RV1
SYMATTR Value {10k*posF+20}
SYMBOL res 640 -448 R0
SYMATTR InstName R4
SYMATTR Value 100
SYMBOL res 640 -96 R0
SYMATTR InstName R5
SYMATTR Value 10k
TEXT -288 -952 Left 2 !.ac oct 100000 10 100k
TEXT 128 -960 Left 2 !.step param posF list 0 0.1 0.3 1
TEXT 544 -960 Left 2 ;LOG A
