Version 4.1
SHEET 1 2448 1076
WIRE -160 -160 -160 -192
WIRE 192 -128 -16 -128
WIRE 304 -128 192 -128
WIRE -16 -96 -16 -128
WIRE 16 -96 -16 -96
WIRE 112 -96 80 -96
WIRE -16 -64 -16 -96
WIRE 16 -64 -16 -64
WIRE -416 -32 -512 -32
WIRE -320 -32 -352 -32
WIRE -288 -32 -320 -32
WIRE -160 -32 -160 -80
WIRE -160 -32 -224 -32
WIRE 16 -32 -160 -32
WIRE 16 0 -16 0
WIRE -320 80 -320 -32
WIRE -192 80 -320 80
WIRE 192 80 192 -128
WIRE 192 80 -112 80
WIRE 0 208 0 176
WIRE 352 240 144 240
WIRE 464 240 352 240
WIRE 144 272 144 240
WIRE 176 272 144 272
WIRE 272 272 240 272
WIRE 144 304 144 272
WIRE 176 304 144 304
WIRE -416 336 -512 336
WIRE -320 336 -352 336
WIRE -256 336 -320 336
WIRE -160 336 -192 336
WIRE -128 336 -160 336
WIRE 0 336 0 288
WIRE 0 336 -64 336
WIRE 176 336 0 336
WIRE 176 368 144 368
WIRE -320 400 -320 336
WIRE -160 448 -160 336
WIRE -32 448 -160 448
WIRE 352 448 352 240
WIRE 352 448 48 448
WIRE -320 512 -320 480
WIRE -160 640 -160 608
WIRE 672 640 672 608
WIRE 192 672 -16 672
WIRE 320 672 192 672
WIRE 1024 672 816 672
WIRE 1136 672 1024 672
WIRE -16 704 -16 672
WIRE 16 704 -16 704
WIRE 112 704 80 704
WIRE 816 704 816 672
WIRE 848 704 816 704
WIRE 944 704 912 704
WIRE -16 736 -16 704
WIRE 16 736 -16 736
WIRE 816 736 816 704
WIRE 848 736 816 736
WIRE -416 768 -512 768
WIRE -320 768 -352 768
WIRE -288 768 -320 768
WIRE -160 768 -160 720
WIRE -160 768 -224 768
WIRE 16 768 -160 768
WIRE 320 768 320 672
WIRE 416 768 320 768
WIRE 512 768 480 768
WIRE 544 768 512 768
WIRE 672 768 672 720
WIRE 672 768 608 768
WIRE 848 768 672 768
WIRE 16 800 -16 800
WIRE 848 800 816 800
WIRE -320 880 -320 768
WIRE -192 880 -320 880
WIRE 192 880 192 672
WIRE 192 880 -112 880
WIRE 512 880 512 768
WIRE 640 880 512 880
WIRE 1024 880 1024 672
WIRE 1024 880 720 880
FLAG -512 -32 VIN
FLAG -448 -448 VIN
FLAG -448 -368 0
FLAG 112 -96 V+
FLAG -16 0 V-
FLAG -336 -448 V+
FLAG -256 -448 V-
FLAG -336 -368 0
FLAG -256 -368 0
FLAG 304 -128 VOUT
FLAG -160 -192 0
FLAG -512 768 VIN
FLAG 112 704 V+
FLAG -16 800 V-
FLAG -160 608 0
FLAG 944 704 V+
FLAG 816 800 V-
FLAG 672 608 0
FLAG 1136 672 VOUT3
FLAG 272 272 V+
FLAG 144 368 V-
FLAG 464 240 VOUT2
FLAG 0 176 0
FLAG -512 336 VIN
FLAG -320 512 0
SYMBOL voltage -448 -464 R0
WINDOW 123 24 44 Left 2
WINDOW 39 0 0 Left 0
WINDOW 3 24 72 Left 2
SYMATTR Value2 AC 1
SYMATTR InstName V1
SYMATTR Value ""
SYMBOL voltage -336 -464 R0
SYMATTR InstName V2
SYMATTR Value 15
SYMBOL voltage -256 -464 R0
SYMATTR InstName V3
SYMATTR Value -15
SYMBOL AudioProject\\NE5532 48 -48 R0
SYMATTR InstName U1
SYMBOL cap -352 -48 R90
WINDOW 0 0 32 VBottom 2
WINDOW 3 32 32 VTop 2
SYMATTR InstName C1
SYMATTR Value 1Ą
SYMBOL cap -224 -48 R90
WINDOW 0 0 32 VBottom 2
WINDOW 3 32 32 VTop 2
SYMATTR InstName C2
SYMATTR Value 1Ą
SYMBOL res -176 -176 R0
SYMATTR InstName R1
SYMATTR Value 15k
SYMBOL res -96 64 R90
WINDOW 0 0 56 VBottom 2
WINDOW 3 32 56 VTop 2
SYMATTR InstName R2
SYMATTR Value 7.5k
SYMBOL cap -352 752 R90
WINDOW 0 0 32 VBottom 2
WINDOW 3 32 32 VTop 2
SYMATTR InstName C3
SYMATTR Value 1Ą
SYMBOL cap -224 752 R90
WINDOW 0 0 32 VBottom 2
WINDOW 3 32 32 VTop 2
SYMATTR InstName C4
SYMATTR Value 1Ą
SYMBOL res -176 624 R0
SYMATTR InstName R3
SYMATTR Value 27k
SYMBOL res -96 864 R90
WINDOW 0 0 56 VBottom 2
WINDOW 3 32 56 VTop 2
SYMATTR InstName R4
SYMATTR Value 3.9k
SYMBOL cap 480 752 R90
WINDOW 0 0 32 VBottom 2
WINDOW 3 32 32 VTop 2
SYMATTR InstName C5
SYMATTR Value 1Ą
SYMBOL cap 608 752 R90
WINDOW 0 0 32 VBottom 2
WINDOW 3 32 32 VTop 2
SYMATTR InstName C6
SYMATTR Value 1Ą
SYMBOL res 656 624 R0
SYMATTR InstName R5
SYMATTR Value 11k
SYMBOL res 736 864 R90
WINDOW 0 0 56 VBottom 2
WINDOW 3 32 56 VTop 2
SYMATTR InstName R6
SYMATTR Value 10k
SYMBOL cap -192 320 R90
WINDOW 0 0 32 VBottom 2
WINDOW 3 32 32 VTop 2
SYMATTR InstName C7
SYMATTR Value 1Ą
SYMBOL cap -64 320 R90
WINDOW 0 0 32 VBottom 2
WINDOW 3 32 32 VTop 2
SYMATTR InstName C8
SYMATTR Value 1Ą
SYMBOL res -16 192 R0
SYMATTR InstName R7
SYMATTR Value 51k
SYMBOL res 64 432 R90
WINDOW 0 0 56 VBottom 2
WINDOW 3 32 56 VTop 2
SYMATTR InstName R8
SYMATTR Value 3k
SYMBOL cap -352 320 R90
WINDOW 0 0 32 VBottom 2
WINDOW 3 32 32 VTop 2
SYMATTR InstName C9
SYMATTR Value 1Ą
SYMBOL res -336 384 R0
SYMATTR InstName R9
SYMATTR Value 7.5k
SYMBOL AudioProject\\TL072 208 320 R0
SYMATTR InstName U2
SYMBOL AudioProject\\TL072 48 752 R0
SYMATTR InstName U4
SYMBOL AudioProject\\TL072 880 752 R0
SYMATTR InstName U3
TEXT -104 -448 Left 2 ;.ac oct 100 1u 10G
TEXT -104 -424 Left 2 !.ac oct 100 1 40
