Version 4.1
SHEET 1 4292 5332
WIRE -560 -880 -560 -896
WIRE 16 -832 16 -896
WIRE 48 -832 16 -832
WIRE 144 -832 112 -832
WIRE 448 -832 448 -864
WIRE 480 -832 448 -832
WIRE 576 -832 544 -832
WIRE 16 -800 16 -832
WIRE 48 -800 16 -800
WIRE 448 -800 448 -832
WIRE 480 -800 448 -800
WIRE -128 -768 -224 -768
WIRE 48 -768 -128 -768
WIRE 480 -768 368 -768
WIRE 48 -736 16 -736
WIRE 480 -736 448 -736
WIRE -928 -352 -928 -384
WIRE 352 -336 352 -384
WIRE -576 -320 -784 -320
WIRE -464 -320 -576 -320
WIRE -784 -288 -784 -320
WIRE -752 -288 -784 -288
WIRE -656 -288 -688 -288
WIRE -784 -256 -784 -288
WIRE -752 -256 -784 -256
WIRE 832 -256 640 -256
WIRE 960 -256 832 -256
WIRE -1344 -224 -1440 -224
WIRE -1248 -224 -1280 -224
WIRE -1184 -224 -1248 -224
WIRE -1088 -224 -1120 -224
WIRE -1056 -224 -1088 -224
WIRE -928 -224 -928 -272
WIRE -928 -224 -992 -224
WIRE -752 -224 -928 -224
WIRE 640 -224 640 -256
WIRE 672 -224 640 -224
WIRE 768 -224 736 -224
WIRE -752 -192 -784 -192
WIRE 64 -192 -80 -192
WIRE 192 -192 144 -192
WIRE 240 -192 192 -192
WIRE 352 -192 352 -272
WIRE 352 -192 320 -192
WIRE 400 -192 352 -192
WIRE 512 -192 480 -192
WIRE 672 -192 512 -192
WIRE -1248 -160 -1248 -224
WIRE 192 -160 192 -192
WIRE 512 -160 512 -192
WIRE 672 -160 624 -160
WIRE 672 -128 640 -128
WIRE -1088 -112 -1088 -224
WIRE -960 -112 -1088 -112
WIRE -576 -112 -576 -320
WIRE -576 -112 -880 -112
WIRE -1248 -48 -1248 -80
WIRE 192 -48 192 -96
WIRE 352 -48 352 -192
WIRE 400 -48 352 -48
WIRE 512 -48 512 -96
WIRE 512 -48 480 -48
WIRE 832 -48 832 -256
WIRE 832 -48 512 -48
WIRE 944 480 336 480
WIRE 1232 480 944 480
WIRE 944 544 944 480
WIRE -992 560 -1232 560
WIRE -880 560 -992 560
WIRE -1232 608 -1232 560
WIRE -1152 608 -1232 608
WIRE -1040 608 -1088 608
WIRE -1232 640 -1232 608
WIRE -1152 640 -1232 640
WIRE 336 640 336 480
WIRE 944 656 944 624
WIRE -1968 672 -2048 672
WIRE -1920 672 -1968 672
WIRE -1648 672 -1840 672
WIRE -1152 672 -1648 672
WIRE -992 688 -992 560
WIRE -1152 704 -1200 704
WIRE -1968 720 -1968 672
WIRE -1648 720 -1648 672
WIRE 336 768 336 720
WIRE 480 768 336 768
WIRE 336 800 336 768
WIRE 480 816 480 768
WIRE 944 816 944 720
WIRE -1968 832 -1968 784
WIRE -1840 832 -1968 832
WIRE -1648 832 -1648 784
WIRE -1648 832 -1776 832
WIRE -1568 832 -1648 832
WIRE -1328 832 -1488 832
WIRE -992 912 -992 768
WIRE -992 912 -1248 912
WIRE 336 944 336 880
WIRE 480 944 480 880
WIRE 480 944 336 944
WIRE 592 944 480 944
WIRE 736 944 672 944
WIRE 800 944 736 944
WIRE 944 944 944 896
WIRE 944 944 880 944
WIRE -1968 1008 -1968 832
WIRE -1920 1008 -1968 1008
WIRE -1696 1008 -1840 1008
WIRE -1536 1008 -1616 1008
WIRE -1472 1008 -1536 1008
WIRE -1328 1008 -1328 832
WIRE -1328 1008 -1392 1008
WIRE 336 1024 336 944
WIRE 480 1024 480 944
WIRE -992 1040 -992 912
WIRE 944 1040 944 944
WIRE 1232 1040 1232 480
WIRE 1472 1040 1232 1040
WIRE -1536 1104 -1536 1008
WIRE -1248 1104 -1248 912
WIRE -1248 1104 -1536 1104
WIRE 1232 1104 1232 1040
WIRE 1280 1104 1232 1104
WIRE 1376 1104 1344 1104
WIRE 336 1120 336 1104
WIRE 480 1120 480 1088
WIRE 480 1120 336 1120
WIRE 736 1136 736 944
WIRE 1280 1136 736 1136
WIRE 336 1168 336 1120
WIRE 944 1168 944 1120
WIRE 1280 1168 1248 1168
WIRE 1280 1200 1248 1200
WIRE -992 1264 -992 1120
WIRE 944 1280 944 1232
WIRE 336 1408 336 1248
WIRE 336 1408 0 1408
WIRE 944 1408 944 1360
WIRE 944 1408 336 1408
WIRE -1440 2240 -1536 2240
WIRE -1296 2240 -1360 2240
WIRE -1216 2240 -1296 2240
WIRE -432 2240 -1136 2240
WIRE 1968 2256 1872 2256
WIRE 2112 2256 2048 2256
WIRE 2192 2256 2112 2256
WIRE 2976 2256 2272 2256
WIRE -1536 2336 -1536 2240
WIRE -1536 2336 -1600 2336
WIRE -848 2336 -1536 2336
WIRE -736 2336 -768 2336
WIRE -704 2336 -736 2336
WIRE -432 2336 -432 2240
WIRE -432 2336 -624 2336
WIRE 1872 2352 1872 2256
WIRE 1872 2352 1808 2352
WIRE 2560 2352 1872 2352
WIRE 2672 2352 2640 2352
WIRE 2704 2352 2672 2352
WIRE 2976 2352 2976 2256
WIRE 2976 2352 2784 2352
WIRE -432 2400 -432 2336
WIRE -432 2400 -672 2400
WIRE -352 2400 -432 2400
WIRE 2976 2416 2976 2352
WIRE 2976 2416 2736 2416
WIRE 3056 2416 2976 2416
WIRE 3168 2416 3136 2416
WIRE -672 2448 -672 2400
WIRE -592 2448 -672 2448
WIRE -480 2448 -528 2448
WIRE 2736 2464 2736 2416
WIRE 2816 2464 2736 2464
WIRE 2928 2464 2880 2464
WIRE -736 2480 -736 2336
WIRE -592 2480 -736 2480
WIRE 2672 2496 2672 2352
WIRE 2816 2496 2672 2496
WIRE -848 2512 -880 2512
WIRE -736 2512 -768 2512
WIRE -592 2512 -736 2512
WIRE 2560 2528 2528 2528
WIRE 2672 2528 2640 2528
WIRE 2816 2528 2672 2528
WIRE -736 2544 -736 2512
WIRE -592 2544 -640 2544
WIRE 2672 2560 2672 2528
WIRE 2816 2560 2768 2560
WIRE -1296 2576 -1296 2240
WIRE -1296 2576 -1504 2576
WIRE 2112 2592 2112 2256
WIRE 2112 2592 1904 2592
WIRE -1504 2656 -1504 2576
WIRE -736 2672 -736 2624
WIRE -48 2672 -736 2672
WIRE 1904 2672 1904 2592
WIRE 2672 2688 2672 2640
WIRE 3360 2688 2672 2688
WIRE -1792 2752 -1936 2752
WIRE 1616 2768 1472 2768
WIRE 880 2784 -1456 2784
WIRE 4288 2800 1952 2800
WIRE -1328 2832 -1392 2832
WIRE -1104 2832 -1328 2832
WIRE -1936 2848 -1936 2752
WIRE -1392 2848 -1392 2832
WIRE -288 2848 -352 2848
WIRE -80 2848 -288 2848
WIRE 688 2848 624 2848
WIRE 880 2848 880 2784
WIRE 880 2848 688 2848
WIRE 2080 2848 2016 2848
WIRE 2304 2848 2080 2848
WIRE -352 2864 -352 2848
WIRE 624 2864 624 2848
WIRE 1472 2864 1472 2768
WIRE 2016 2864 2016 2848
WIRE 3120 2864 3056 2864
WIRE 3328 2864 3120 2864
WIRE 4096 2864 4032 2864
WIRE 4288 2864 4288 2800
WIRE 4288 2864 4096 2864
WIRE 3056 2880 3056 2864
WIRE 4032 2880 4032 2864
WIRE -720 2896 -976 2896
WIRE 256 2896 0 2896
WIRE -1328 2912 -1328 2832
WIRE -1296 2912 -1328 2912
WIRE -1184 2912 -1232 2912
WIRE -288 2912 -288 2848
WIRE -256 2912 -288 2912
WIRE -144 2912 -192 2912
WIRE 688 2912 688 2848
WIRE 720 2912 688 2912
WIRE 832 2912 784 2912
WIRE 2688 2912 2432 2912
WIRE 3664 2912 3408 2912
WIRE 2080 2928 2080 2848
WIRE 2112 2928 2080 2928
WIRE 2224 2928 2176 2928
WIRE 3120 2928 3120 2864
WIRE 3152 2928 3120 2928
WIRE 3264 2928 3216 2928
WIRE 4096 2928 4096 2864
WIRE 4128 2928 4096 2928
WIRE 4240 2928 4192 2928
WIRE -1792 2944 -1792 2752
WIRE -1744 2944 -1792 2944
WIRE -1456 2944 -1456 2864
WIRE -1456 2944 -1664 2944
WIRE -1392 2944 -1392 2928
WIRE -1392 2944 -1456 2944
WIRE -1296 2944 -1392 2944
WIRE -1104 2944 -1104 2832
WIRE -976 2944 -976 2896
WIRE -976 2944 -1104 2944
WIRE -880 2944 -976 2944
WIRE -720 2944 -720 2896
WIRE -720 2944 -800 2944
WIRE -656 2944 -720 2944
WIRE -480 2944 -576 2944
WIRE -352 2944 -352 2928
WIRE -352 2944 -400 2944
WIRE -256 2944 -352 2944
WIRE -80 2944 -80 2848
WIRE -64 2944 -80 2944
WIRE -48 2944 -48 2672
WIRE -48 2944 -64 2944
WIRE 0 2944 0 2896
WIRE 0 2944 -48 2944
WIRE 96 2944 0 2944
WIRE 256 2944 256 2896
WIRE 256 2944 176 2944
WIRE 320 2944 256 2944
WIRE 496 2944 400 2944
WIRE 624 2944 624 2928
WIRE 624 2944 576 2944
WIRE 720 2944 624 2944
WIRE 1616 2960 1616 2768
WIRE 1664 2960 1616 2960
WIRE 1952 2960 1952 2880
WIRE 1952 2960 1744 2960
WIRE 2016 2960 2016 2944
WIRE 2016 2960 1952 2960
WIRE 2112 2960 2016 2960
WIRE 2304 2960 2304 2848
WIRE 2432 2960 2432 2912
WIRE 2432 2960 2304 2960
WIRE 2528 2960 2432 2960
WIRE 2688 2960 2688 2912
WIRE 2688 2960 2608 2960
WIRE 2752 2960 2688 2960
WIRE 2928 2960 2832 2960
WIRE 3056 2960 3056 2944
WIRE 3056 2960 3008 2960
WIRE 3152 2960 3056 2960
WIRE 3328 2960 3328 2864
WIRE 3344 2960 3328 2960
WIRE 3360 2960 3360 2688
WIRE 3360 2960 3344 2960
WIRE 3408 2960 3408 2912
WIRE 3408 2960 3360 2960
WIRE 3504 2960 3408 2960
WIRE 3664 2960 3664 2912
WIRE 3664 2960 3584 2960
WIRE 3728 2960 3664 2960
WIRE 3904 2960 3808 2960
WIRE 4032 2960 4032 2944
WIRE 4032 2960 3984 2960
WIRE 4128 2960 4032 2960
WIRE -1504 2976 -1504 2736
WIRE -1504 2976 -1616 2976
WIRE -1392 2976 -1504 2976
WIRE -1296 2976 -1392 2976
WIRE -256 2976 -352 2976
WIRE 720 2976 624 2976
WIRE -1936 2992 -1936 2928
WIRE -1904 2992 -1936 2992
WIRE 1904 2992 1904 2752
WIRE 1904 2992 1792 2992
WIRE 2016 2992 1904 2992
WIRE 2112 2992 2016 2992
WIRE 3152 2992 3056 2992
WIRE 4128 2992 4032 2992
WIRE -1296 3008 -1344 3008
WIRE -256 3008 -304 3008
WIRE 720 3008 672 3008
WIRE 1472 3008 1472 2944
WIRE 1504 3008 1472 3008
WIRE 2112 3024 2064 3024
WIRE 3152 3024 3104 3024
WIRE 4128 3024 4080 3024
WIRE -1744 3056 -1792 3056
WIRE -1616 3056 -1616 2976
WIRE -1616 3056 -1664 3056
WIRE -1936 3072 -1936 2992
WIRE 1664 3072 1616 3072
WIRE 1792 3072 1792 2992
WIRE 1792 3072 1744 3072
WIRE 1472 3088 1472 3008
WIRE -1392 3136 -1392 2976
WIRE -656 3136 -1392 3136
WIRE -64 3136 -64 2944
WIRE -64 3136 -576 3136
WIRE 2016 3152 2016 2992
WIRE 2752 3152 2016 3152
WIRE 3344 3152 3344 2960
WIRE 3344 3152 2832 3152
WIRE -1936 3248 -1936 3152
WIRE -1792 3248 -1792 3056
WIRE -1792 3248 -1936 3248
WIRE 1472 3264 1472 3168
WIRE 1616 3264 1616 3072
WIRE 1616 3264 1472 3264
FLAG -656 -288 V+
FLAG -784 -192 V-
FLAG -928 -384 0
FLAG -1440 -224 VB
FLAG -1248 -48 0
FLAG 768 -224 V+
FLAG 640 -128 V-
FLAG 960 -256 VLP
FLAG 352 -384 0
FLAG -80 -192 VHP
FLAG 624 -160 0
FLAG 192 -48 0
FLAG -464 -320 VHP
FLAG -816 -864 VIN
FLAG -816 -784 0
FLAG 1376 1104 V+
FLAG 1248 1200 V-
FLAG 1248 1168 0
FLAG 0 1408 VN
FLAG 1472 1040 VS
FLAG -640 2544 V-
FLAG -480 2448 V+
FLAG -880 2512 0
FLAG -352 2400 VM1
FLAG -304 3008 V-
FLAG -144 2912 V+
FLAG -1344 3008 V-
FLAG -1184 2912 V+
FLAG -352 2976 0
FLAG 672 3008 V-
FLAG 832 2912 V+
FLAG 624 2976 0
FLAG -1904 2992 0
FLAG -1600 2336 VS
FLAG 2768 2560 V-
FLAG 2928 2464 V+
FLAG 2528 2528 0
FLAG 3168 2416 VM2
FLAG 3104 3024 V-
FLAG 3264 2928 V+
FLAG 2064 3024 V-
FLAG 2224 2928 V+
FLAG 3056 2992 0
FLAG 4080 3024 V-
FLAG 4240 2928 V+
FLAG 4032 2992 0
FLAG 1808 2352 VM1
FLAG 144 -832 V+
FLAG 16 -736 V-
FLAG -224 -768 VIN
FLAG 16 -896 VB
FLAG 576 -832 V+
FLAG 448 -736 V-
FLAG 368 -768 VM2
FLAG 448 -944 VOUT
FLAG -656 -880 V+
FLAG -656 -800 0
FLAG -560 -896 V-
FLAG -560 -800 0
FLAG 1504 3008 0
FLAG -1200 704 V-
FLAG -1040 608 V+
FLAG -992 1264 0
FLAG -880 560 VN
FLAG -2048 672 VLP
FLAG -128 -688 0
SYMBOL cap -1120 -240 R90
WINDOW 0 0 32 VBottom 2
WINDOW 3 32 32 VTop 2
SYMATTR InstName C1
SYMATTR Value 1µ
SYMBOL cap -992 -240 R90
WINDOW 0 0 32 VBottom 2
WINDOW 3 32 32 VTop 2
SYMATTR InstName C2
SYMATTR Value 1µ
SYMBOL res -944 -368 R0
SYMATTR InstName R1
SYMATTR Value 51k
SYMBOL res -864 -128 R90
WINDOW 0 0 56 VBottom 2
WINDOW 3 32 56 VTop 2
SYMATTR InstName R2
SYMATTR Value 3k
SYMBOL cap -1280 -240 R90
WINDOW 0 0 32 VBottom 2
WINDOW 3 32 32 VTop 2
SYMATTR InstName C3
SYMATTR Value 1µ
SYMBOL res -1264 -176 R0
SYMATTR InstName R3
SYMATTR Value 7.5k
SYMBOL cap 336 -336 R0
SYMATTR InstName C4
SYMATTR Value 10n
SYMBOL res 336 -208 R90
WINDOW 0 0 56 VBottom 2
WINDOW 3 32 56 VTop 2
SYMATTR InstName R4
SYMATTR Value 1.2k
SYMBOL res 496 -208 R90
WINDOW 0 0 56 VBottom 2
WINDOW 3 32 56 VTop 2
SYMATTR InstName R5
SYMATTR Value 1.1k
SYMBOL AudioProject\\NE5532 704 -176 R0
SYMATTR InstName U1
SYMBOL res 496 -64 R90
WINDOW 0 0 56 VBottom 2
WINDOW 3 32 56 VTop 2
SYMATTR InstName R6
SYMATTR Value 3.9k
SYMBOL cap 496 -160 R0
SYMATTR InstName C5
SYMATTR Value 680p
SYMBOL res 160 -208 R90
WINDOW 0 0 56 VBottom 2
WINDOW 3 32 56 VTop 2
SYMATTR InstName R7
SYMATTR Value 2.7k
SYMBOL cap 176 -160 R0
SYMATTR InstName C6
SYMATTR Value 10n
SYMBOL voltage -816 -880 R0
WINDOW 123 24 100 Left 2
WINDOW 39 0 0 Left 0
WINDOW 3 24 128 Left 2
SYMATTR Value2 AC 1
SYMATTR Value SINE(0 1.5 1k)
SYMATTR InstName V1
SYMBOL AudioProject\\NE5532 1312 1152 R0
SYMATTR InstName U2
SYMBOL cap 464 816 R0
SYMATTR InstName C7
SYMATTR Value 100n
SYMBOL cap 464 1024 R0
SYMATTR InstName C8
SYMATTR Value 100n
SYMBOL res 320 1152 R0
SYMATTR InstName R8
SYMATTR Value 1.8k
SYMBOL res 320 624 R0
SYMATTR InstName R9
SYMATTR Value 1.8k
SYMBOL res 688 928 R90
WINDOW 0 0 56 VBottom 2
WINDOW 3 32 56 VTop 2
SYMATTR InstName R10
SYMATTR Value 12k
SYMBOL res 928 640 M180
WINDOW 0 36 76 Left 2
WINDOW 3 36 40 Left 2
SYMATTR InstName R11
SYMATTR Value 1k
SYMBOL res 928 1376 M180
WINDOW 0 36 76 Left 2
WINDOW 3 36 40 Left 2
SYMATTR InstName R12
SYMATTR Value 1k
SYMBOL res 896 928 R90
WINDOW 0 0 56 VBottom 2
WINDOW 3 32 56 VTop 2
SYMATTR InstName R13
SYMATTR Value 1k
SYMBOL cap 928 720 M180
WINDOW 0 24 56 Left 2
WINDOW 3 24 8 Left 2
SYMATTR InstName C9
SYMATTR Value 15n
SYMBOL cap 928 1232 M180
WINDOW 0 24 56 Left 2
WINDOW 3 24 8 Left 2
SYMATTR InstName C10
SYMATTR Value 15n
SYMBOL res -752 2496 R90
WINDOW 0 0 56 VBottom 2
WINDOW 3 32 56 VTop 2
SYMATTR InstName R14
SYMATTR Value 2.2k
SYMBOL res -752 2528 R0
SYMATTR InstName R15
SYMATTR Value 2.2k
SYMBOL res -752 2320 R90
WINDOW 0 0 56 VBottom 2
WINDOW 3 32 56 VTop 2
SYMATTR InstName R16
SYMATTR Value 4.7k
SYMBOL res -608 2320 R90
WINDOW 0 0 56 VBottom 2
WINDOW 3 32 56 VTop 2
SYMATTR InstName R17
SYMATTR Value 4.7k
SYMBOL cap -368 2864 R0
SYMATTR InstName C11
SYMATTR Value 10n
SYMBOL res -1408 2832 R0
SYMATTR InstName R18
SYMATTR Value 12k
SYMBOL res -384 2928 R90
WINDOW 0 0 56 VBottom 2
WINDOW 3 32 56 VTop 2
SYMATTR InstName R19
SYMATTR Value 6.8k
SYMBOL cap 608 2864 R0
SYMATTR InstName C12
SYMATTR Value 47n
SYMBOL res 592 2928 R90
WINDOW 0 0 56 VBottom 2
WINDOW 3 32 56 VTop 2
SYMATTR InstName R20
SYMATTR Value 6.8k
SYMBOL res -560 3120 R90
WINDOW 0 0 56 VBottom 2
WINDOW 3 32 56 VTop 2
SYMATTR InstName R21
SYMATTR Value 4.7k
SYMBOL res -1648 2928 R90
WINDOW 0 0 56 VBottom 2
WINDOW 3 32 56 VTop 2
SYMATTR InstName R22
SYMATTR Value 4.7k
SYMBOL res -1648 3040 R90
WINDOW 0 0 56 VBottom 2
WINDOW 3 32 56 VTop 2
SYMATTR InstName R23
SYMATTR Value 470
SYMBOL res -1520 2640 R0
SYMATTR InstName R24
SYMATTR Value 1k
SYMBOL res -1472 2768 R0
SYMATTR InstName R25
SYMATTR Value 12k
SYMBOL AudioProject\\TL072 752 2960 R0
SYMATTR InstName U3
SYMBOL AudioProject\\TL072 -224 2960 R0
SYMATTR InstName U4
SYMBOL AudioProject\\TL072 -1264 2960 R0
SYMATTR InstName U5
SYMBOL AudioProject\\TL072 -560 2496 R0
SYMATTR InstName U6
SYMBOL res 2656 2512 R90
WINDOW 0 0 56 VBottom 2
WINDOW 3 32 56 VTop 2
SYMATTR InstName R26
SYMATTR Value 2.2k
SYMBOL res 2656 2544 R0
SYMATTR InstName R27
SYMATTR Value 2.2k
SYMBOL res 2656 2336 R90
WINDOW 0 0 56 VBottom 2
WINDOW 3 32 56 VTop 2
SYMATTR InstName R28
SYMATTR Value 4.7k
SYMBOL res 2800 2336 R90
WINDOW 0 0 56 VBottom 2
WINDOW 3 32 56 VTop 2
SYMATTR InstName R29
SYMATTR Value 4.7k
SYMBOL cap 3040 2880 R0
SYMATTR InstName C13
SYMATTR Value 1n
SYMBOL res 2000 2848 R0
SYMATTR InstName R30
SYMATTR Value 12k
SYMBOL res 3024 2944 R90
WINDOW 0 0 56 VBottom 2
WINDOW 3 32 56 VTop 2
SYMATTR InstName R31
SYMATTR Value 6.8k
SYMBOL cap 4016 2880 R0
SYMATTR InstName C14
SYMATTR Value 4.7n
SYMBOL res 4000 2944 R90
WINDOW 0 0 56 VBottom 2
WINDOW 3 32 56 VTop 2
SYMATTR InstName R32
SYMATTR Value 6.8k
SYMBOL res 2848 3136 R90
WINDOW 0 0 56 VBottom 2
WINDOW 3 32 56 VTop 2
SYMATTR InstName R33
SYMATTR Value 4.7k
SYMBOL res 1760 2944 R90
WINDOW 0 0 56 VBottom 2
WINDOW 3 32 56 VTop 2
SYMATTR InstName R34
SYMATTR Value 4.7k
SYMBOL res 1760 3056 R90
WINDOW 0 0 56 VBottom 2
WINDOW 3 32 56 VTop 2
SYMATTR InstName R35
SYMATTR Value 470
SYMBOL res 1888 2656 R0
SYMATTR InstName R36
SYMATTR Value 1k
SYMBOL res 1936 2784 R0
SYMATTR InstName R37
SYMATTR Value 12k
SYMBOL AudioProject\\TL072 4160 2976 R0
SYMATTR InstName U7
SYMBOL AudioProject\\TL072 3184 2976 R0
SYMATTR InstName U8
SYMBOL AudioProject\\TL072 2144 2976 R0
SYMATTR InstName U9
SYMBOL AudioProject\\TL072 2848 2512 R0
SYMATTR InstName U10
SYMBOL AudioProject\\TL072 -720 -240 R0
SYMATTR InstName U11
SYMBOL AudioProject\\TL072 80 -784 R0
SYMATTR InstName U12
SYMBOL AudioProject\\TL072 512 -784 R0
SYMATTR InstName U13
SYMBOL res 3152 2400 R90
WINDOW 0 0 56 VBottom 2
WINDOW 3 32 56 VTop 2
SYMATTR InstName R38
SYMATTR Value 47
SYMBOL voltage -656 -896 R0
WINDOW 123 24 100 Left 2
WINDOW 39 24 156 Left 2
WINDOW 3 24 128 Left 2
SYMATTR SpiceLine Rser=1
SYMATTR Value 15
SYMATTR InstName V2
SYMBOL voltage -560 -896 R0
WINDOW 123 24 100 Left 2
WINDOW 39 24 156 Left 2
WINDOW 3 24 128 Left 2
SYMATTR SpiceLine Rser=1
SYMATTR Value -15
SYMATTR InstName V3
SYMBOL res 352 896 R180
WINDOW 0 36 76 Left 2
WINDOW 3 36 40 Left 2
SYMATTR InstName R39
SYMATTR Value {RV_12_2}
SYMBOL res 352 1120 R180
WINDOW 0 36 76 Left 2
WINDOW 3 36 40 Left 2
SYMATTR InstName R40
SYMATTR Value {RV_23_2}
SYMBOL res 960 912 R180
WINDOW 0 36 76 Left 2
WINDOW 3 36 40 Left 2
SYMATTR InstName R41
SYMATTR Value {RV_12_3}
SYMBOL res 960 1136 R180
WINDOW 0 36 76 Left 2
WINDOW 3 36 40 Left 2
SYMATTR InstName R42
SYMATTR Value {RV_23_3}
SYMBOL res -1344 2224 R90
WINDOW 0 0 56 VBottom 2
WINDOW 3 32 56 VTop 2
SYMATTR InstName R43
SYMATTR Value {RV_23_4}
SYMBOL res -1120 2224 R90
WINDOW 0 0 56 VBottom 2
WINDOW 3 32 56 VTop 2
SYMATTR InstName R44
SYMATTR Value {RV_12_4}
SYMBOL res -1920 2944 R180
WINDOW 0 36 76 Left 2
WINDOW 3 36 40 Left 2
SYMATTR InstName R45
SYMATTR Value {RV_12_6}
SYMBOL res -1920 3168 R180
WINDOW 0 36 76 Left 2
WINDOW 3 36 40 Left 2
SYMATTR InstName R46
SYMATTR Value {RV_23_6}
SYMBOL res 2064 2240 R90
WINDOW 0 0 56 VBottom 2
WINDOW 3 32 56 VTop 2
SYMATTR InstName R47
SYMATTR Value {RV_23_5}
SYMBOL res 2288 2240 R90
WINDOW 0 0 56 VBottom 2
WINDOW 3 32 56 VTop 2
SYMATTR InstName R48
SYMATTR Value {RV_12_5}
SYMBOL res 1488 2960 R180
WINDOW 0 36 76 Left 2
WINDOW 3 36 40 Left 2
SYMATTR InstName R49
SYMATTR Value {RV_12_8}
SYMBOL res 1488 3184 R180
WINDOW 0 36 76 Left 2
WINDOW 3 36 40 Left 2
SYMATTR InstName R50
SYMATTR Value {RV_23_8}
SYMBOL res -784 2928 R90
WINDOW 0 0 56 VBottom 2
WINDOW 3 32 56 VTop 2
SYMATTR InstName R51
SYMATTR Value {RV_12_7}
SYMBOL res -560 2928 R90
WINDOW 0 0 56 VBottom 2
WINDOW 3 32 56 VTop 2
SYMATTR InstName R52
SYMATTR Value {RV_23_7}
SYMBOL res 192 2928 R90
WINDOW 0 0 56 VBottom 2
WINDOW 3 32 56 VTop 2
SYMATTR InstName R53
SYMATTR Value {RV_12_7}
SYMBOL res 416 2928 R90
WINDOW 0 0 56 VBottom 2
WINDOW 3 32 56 VTop 2
SYMATTR InstName R54
SYMATTR Value {RV_23_7}
SYMBOL res 2624 2944 R90
WINDOW 0 0 56 VBottom 2
WINDOW 3 32 56 VTop 2
SYMATTR InstName R55
SYMATTR Value {RV_12_9}
SYMBOL res 2848 2944 R90
WINDOW 0 0 56 VBottom 2
WINDOW 3 32 56 VTop 2
SYMATTR InstName R56
SYMATTR Value {RV_23_9}
SYMBOL res 3600 2944 R90
WINDOW 0 0 56 VBottom 2
WINDOW 3 32 56 VTop 2
SYMATTR InstName R57
SYMATTR Value {RV_12_9}
SYMBOL res 3824 2944 R90
WINDOW 0 0 56 VBottom 2
WINDOW 3 32 56 VTop 2
SYMATTR InstName R58
SYMATTR Value {RV_23_9}
SYMBOL res -1824 656 R90
WINDOW 0 0 56 VBottom 2
WINDOW 3 32 56 VTop 2
SYMATTR InstName R59
SYMATTR Value 139k
SYMBOL cap -1984 720 R0
SYMATTR InstName C15
SYMATTR Value 47n
SYMBOL cap -1664 720 R0
SYMATTR InstName C16
SYMATTR Value 47n
SYMBOL cap -1776 816 R90
WINDOW 0 0 32 VBottom 2
WINDOW 3 32 32 VTop 2
SYMATTR InstName C17
SYMATTR Value 47n
SYMBOL res -1584 848 R270
WINDOW 0 32 56 VTop 2
WINDOW 3 0 56 VBottom 2
SYMATTR InstName R60
SYMATTR Value 1k
SYMBOL res -1824 992 R90
WINDOW 0 0 56 VBottom 2
WINDOW 3 32 56 VTop 2
SYMATTR InstName R61
SYMATTR Value 12k
SYMBOL res -1008 672 R0
SYMATTR InstName R62
SYMATTR Value 100
SYMBOL res -1008 1024 R0
SYMATTR InstName R63
SYMATTR Value 10k
SYMBOL res -1600 992 R90
WINDOW 0 0 56 VBottom 2
WINDOW 3 32 56 VTop 2
SYMATTR InstName R64
SYMATTR Value {RV_23_1}
SYMBOL res -1376 992 R90
WINDOW 0 0 56 VBottom 2
WINDOW 3 32 56 VTop 2
SYMATTR InstName R65
SYMATTR Value {RV_12_1}
SYMBOL AudioProject\\TL072 -1120 656 R0
SYMATTR InstName U14
SYMBOL res 432 -960 R0
SYMATTR InstName R66
SYMATTR Value 47
SYMBOL res -144 -784 R0
SYMATTR InstName R67
SYMATTR Value 220
TEXT -1376 -856 Left 2 ;.ac oct 100 10 40k
TEXT -1376 -832 Left 2 ;.tran 10m
TEXT -1376 -808 Left 2 !.noise V(VOUT) V1 oct 100 10 40k
TEXT 1672 304 Left 2 ;Defaults: \n-0.85dB @ 20Hz\n-0.87dB @ 20kHz\napprox -360 phase shift in pass band
TEXT 56 760 Left 2 ;PTD902-2215K-B103
TEXT 960 776 Left 2 ;PTD902-2215K-B103
TEXT -120 1488 Left 2 !.param Travel_2 = 0.5\n.param R_Total_2 = 10k\n.param TaperRatio_2 = table(Travel_2, 0,0, 0.1,0.05, 0.2,0.12, 0.3,0.22, 0.4,0.35, 0.5,0.5, 0.6,0.65, 0.7,0.78, 0.8,0.88, 0.9,0.95, 1,1)\n.param RV_12_2 = {max(R_Total_2 * TaperRatio_2, 0.01 * R_Total_2)}\n.param RV_23_2 = {max(R_Total_2 * (1 - TaperRatio_2), 0.01 * R_Total_2)}
TEXT -120 1664 Left 2 !.param Travel_3 = 0.5\n.param R_Total_3 = 10k\n.param TaperRatio_3 = table(Travel_3, 0,0, 0.1,0.05, 0.2,0.12, 0.3,0.22, 0.4,0.35, 0.5,0.5, 0.6,0.65, 0.7,0.78, 0.8,0.88, 0.9,0.95, 1,1)\n.param RV_12_3 = {max(R_Total_3 * TaperRatio_3, 0.01 * R_Total_3)}\n.param RV_23_3 = {max(R_Total_3 * (1 - TaperRatio_3), 0.01 * R_Total_3)}
TEXT -2576 2024 Left 2 !.param Travel_4 = 0.5\n.param R_Total_4 = 10k\n.param TaperRatio_4 = table(Travel_4, 0,0, 0.1,0.05, 0.2,0.12, 0.3,0.22, 0.4,0.35, 0.5,0.5, 0.6,0.65, 0.7,0.78, 0.8,0.88, 0.9,0.95, 1,1)\n.param RV_12_4 = {max(R_Total_4 * TaperRatio_4, 0.01 * R_Total_4)}\n.param RV_23_4 = {max(R_Total_4 * (1 - TaperRatio_4), 0.01 * R_Total_4)}
TEXT 832 2016 Left 2 !.param Travel_5 = 0.5\n.param R_Total_5 = 10k\n.param TaperRatio_5 = table(Travel_5, 0,0, 0.1,0.05, 0.2,0.12, 0.3,0.22, 0.4,0.35, 0.5,0.5, 0.6,0.65, 0.7,0.78, 0.8,0.88, 0.9,0.95, 1,1)\n.param RV_12_5 = {max(R_Total_5 * TaperRatio_5, 0.01 * R_Total_5)}\n.param RV_23_5 = {max(R_Total_5 * (1 - TaperRatio_5), 0.01 * R_Total_5)}
TEXT -2640 3344 Left 2 !.param Travel_6 = 0.5\n.param R_Total_6 = 100k\n.param TaperRatio_6 = table(Travel_6, 0,0, 0.1,0.05, 0.2,0.12, 0.3,0.22, 0.4,0.35, 0.5,0.5, 0.6,0.65, 0.7,0.78, 0.8,0.88, 0.9,0.95, 1,1)\n.param RV_12_6 = {max(R_Total_6 * TaperRatio_6, 0.01 * R_Total_6)}\n.param RV_23_6 = {max(R_Total_6 * (1 - TaperRatio_6), 0.01 * R_Total_6)}
TEXT -664 3344 Left 2 !.param Travel_7 = 0.5\n.param R_Total_7 = 100k\n.param TaperRatio_7 = table(Travel_7, 0,0, 0.1,0.18, 0.2,0.38, 0.3,0.58, 0.4,0.74, 0.5,0.85, 0.6,0.92, 0.7,0.96, 0.8,0.98, 0.9,0.99, 1,1)\n.param RV_12_7 = {max(R_Total_7 * TaperRatio_7, 0.01 * R_Total_7)}\n.param RV_23_7 = {max(R_Total_7 * (1 - TaperRatio_7), 0.01 * R_Total_7)}
TEXT 968 3408 Left 2 !.param Travel_8 = 0.5\n.param R_Total_8 = 100k\n.param TaperRatio_8 = table(Travel_8, 0,0, 0.1,0.05, 0.2,0.12, 0.3,0.22, 0.4,0.35, 0.5,0.5, 0.6,0.65, 0.7,0.78, 0.8,0.88, 0.9,0.95, 1,1)\n.param RV_12_8 = {max(R_Total_8 * TaperRatio_8, 0.01 * R_Total_8)}\n.param RV_23_8 = {max(R_Total_8 * (1 - TaperRatio_8), 0.01 * R_Total_8)}
TEXT 2680 3408 Left 2 !.param Travel_9 = 0.5\n.param R_Total_9 = 100k\n.param TaperRatio_9 = table(Travel_9, 0,0, 0.1,0.18, 0.2,0.38, 0.3,0.58, 0.4,0.74, 0.5,0.85, 0.6,0.92, 0.7,0.96, 0.8,0.98, 0.9,0.99, 1,1)\n.param RV_12_9 = {max(R_Total_9 * TaperRatio_9, 0.01 * R_Total_9)}\n.param RV_23_9 = {max(R_Total_9 * (1 - TaperRatio_9), 0.01 * R_Total_9)}
TEXT -1112 2176 Left 2 ;PTD902-2215K-B103
TEXT 1976 2168 Left 2 ;PTD902-2215K-B103
TEXT -864 3024 Left 2 ;PTD904-2015K-C104
TEXT 2480 3040 Left 2 ;PTD904-2015K-C104
TEXT -2088 1288 Left 2 !.param Travel_1 = 0.5\n.param R_Total_1 = 10k\n.param TaperRatio_1 = table(Travel_1, 0,0, 0.1,0.015, 0.2,0.035, 0.3,0.06, 0.4,0.10, 0.5,0.15, 0.6,0.24, 0.7,0.36, 0.8,0.54, 0.9,0.78, 1,1)\n.param RV_12_1 = {max(R_Total_1 * TaperRatio_1, 0.01 * R_Total_1)}\n.param RV_23_1 = {max(R_Total_1 * (1 - TaperRatio_1), 0.01 * R_Total_1)}
TEXT -2080 1256 Left 2 ;PTD902-2015K-A103
TEXT -1680 944 Left 2 ;PTD902-2015K-A103
TEXT -2280 2768 Left 2 ;PTD902-1015K-B104
TEXT 1152 2776 Left 2 ;PTD902-1015K-B104
TEXT -1368 -784 Left 2 ;.dc oct V1 0.1 50 100
