Version 4.1
SHEET 1 880 680
WIRE 96 -192 96 -240
WIRE 96 -64 96 -112
WIRE 288 -32 192 -32
WIRE 464 -32 288 -32
WIRE 576 -32 464 -32
WIRE 288 0 288 -32
WIRE 384 0 352 0
WIRE 192 32 192 -32
WIRE 288 32 192 32
WIRE -336 64 -432 64
WIRE -192 64 -272 64
WIRE -96 64 -192 64
WIRE 96 64 96 16
WIRE 96 64 -32 64
WIRE 288 64 96 64
WIRE 288 96 256 96
WIRE -192 192 -192 64
WIRE -128 192 -192 192
WIRE -96 192 -128 192
WIRE 16 192 -16 192
WIRE 112 192 16 192
WIRE 464 192 464 -32
WIRE 464 192 192 192
WIRE -128 288 -128 192
WIRE -96 288 -128 288
WIRE 16 288 16 192
WIRE 16 288 -16 288
FLAG -432 64 VIN
FLAG 96 -240 0
FLAG -448 -448 VIN
FLAG -448 -368 0
FLAG 384 0 VCC+
FLAG 256 96 VCC-
FLAG -336 -448 VCC+
FLAG -256 -448 VCC-
FLAG -336 -368 0
FLAG -256 -368 0
FLAG 576 -32 VOUT
SYMBOL cap -32 48 R90
WINDOW 0 0 32 VBottom 2
WINDOW 3 32 32 VTop 2
SYMATTR InstName C1
SYMATTR Value 1”
SYMBOL cap -272 48 R90
WINDOW 0 0 32 VBottom 2
WINDOW 3 32 32 VTop 2
SYMATTR InstName C2
SYMATTR Value 1”
SYMBOL res 0 176 R90
WINDOW 0 0 56 VBottom 2
WINDOW 3 32 56 VTop 2
SYMATTR InstName POT1A
SYMATTR Value {R}
SYMBOL res 112 -96 R180
WINDOW 0 36 76 Left 2
WINDOW 3 36 40 Left 2
SYMATTR InstName POT1B
SYMATTR Value {R}
SYMBOL voltage -448 -464 R0
WINDOW 123 24 44 Left 2
WINDOW 39 0 0 Left 0
SYMATTR Value2 AC 1
SYMATTR InstName V1
SYMATTR Value ""
SYMBOL res 112 32 R180
WINDOW 0 36 76 Left 2
WINDOW 3 36 40 Left 2
SYMATTR InstName R3
SYMATTR Value 1k
SYMBOL res 0 272 R90
WINDOW 0 0 56 VBottom 2
WINDOW 3 32 56 VTop 2
SYMATTR InstName R1
SYMATTR Value 10k
SYMBOL res 208 176 R90
WINDOW 0 0 56 VBottom 2
WINDOW 3 32 56 VTop 2
SYMATTR InstName R2
SYMATTR Value 470
SYMBOL AudioProject\\TL072 320 48 R0
SYMATTR InstName U2
SYMBOL voltage -336 -464 R0
SYMATTR InstName V2
SYMATTR Value 15
SYMBOL voltage -256 -464 R0
SYMATTR InstName V3
SYMATTR Value -15
TEXT 288 -472 Left 2 !.ac oct 100 10 100k
TEXT 288 -448 Left 2 !.lib opamp.sub
TEXT 288 -352 Left 2 !.param R = ((10k*(1-pos))+20)
TEXT 288 -384 Left 2 !.step param pos 0 1 0.25
