Version 4.1
SHEET 1 1412 680
WIRE -672 -752 -912 -752
WIRE -560 -752 -672 -752
WIRE -912 -704 -912 -752
WIRE -832 -704 -912 -704
WIRE -720 -704 -768 -704
WIRE -912 -672 -912 -704
WIRE -832 -672 -912 -672
WIRE -1648 -640 -1728 -640
WIRE -1600 -640 -1648 -640
WIRE -1328 -640 -1520 -640
WIRE -832 -640 -1328 -640
WIRE -672 -624 -672 -752
WIRE -832 -608 -880 -608
WIRE -1648 -592 -1648 -640
WIRE -1328 -592 -1328 -640
WIRE -1648 -480 -1648 -528
WIRE -1520 -480 -1648 -480
WIRE -1328 -480 -1328 -528
WIRE -1328 -480 -1456 -480
WIRE -1248 -480 -1328 -480
WIRE -1008 -480 -1168 -480
WIRE -672 -400 -672 -544
WIRE -672 -400 -928 -400
WIRE -1648 -304 -1648 -480
WIRE -1600 -304 -1648 -304
WIRE -1376 -304 -1520 -304
WIRE -1216 -304 -1296 -304
WIRE -1152 -304 -1216 -304
WIRE -1008 -304 -1008 -480
WIRE -1008 -304 -1072 -304
WIRE -672 -272 -672 -400
WIRE -1216 -208 -1216 -304
WIRE -928 -208 -928 -400
WIRE -928 -208 -1216 -208
WIRE -672 -48 -672 -192
FLAG -1712 -960 VLP
FLAG -1712 -880 0
FLAG -1584 -880 0
FLAG -1488 -880 0
FLAG -1584 -960 V+
FLAG -1488 -960 V-
FLAG -880 -608 V-
FLAG -720 -704 V+
FLAG -672 -48 0
FLAG -560 -752 VN
FLAG -1728 -640 VLP
SYMBOL voltage -1712 -976 R0
WINDOW 123 24 44 Left 2
WINDOW 39 0 0 Left 0
SYMATTR Value2 AC 1
SYMATTR InstName V1
SYMATTR Value ""
SYMBOL voltage -1584 -976 R0
SYMATTR InstName V2
SYMATTR Value 18
SYMBOL voltage -1488 -976 R0
SYMATTR InstName V3
SYMATTR Value -18
SYMBOL res -1504 -656 R90
WINDOW 0 0 56 VBottom 2
WINDOW 3 32 56 VTop 2
SYMATTR InstName R3
SYMATTR Value 139k
SYMBOL cap -1664 -592 R0
SYMATTR InstName C4
SYMATTR Value 47n
SYMBOL cap -1344 -592 R0
SYMATTR InstName C5
SYMATTR Value 47n
SYMBOL cap -1456 -496 R90
WINDOW 0 0 32 VBottom 2
WINDOW 3 32 32 VTop 2
SYMATTR InstName C6
SYMATTR Value 47n
SYMBOL res -1264 -464 R270
WINDOW 0 32 56 VTop 2
WINDOW 3 0 56 VBottom 2
SYMATTR InstName R7
SYMATTR Value 1k
SYMBOL res -1504 -320 R90
WINDOW 0 0 56 VBottom 2
WINDOW 3 32 56 VTop 2
SYMATTR InstName R8
SYMATTR Value 12k
SYMBOL res -688 -640 R0
SYMATTR InstName R9
SYMATTR Value 100
SYMBOL res -688 -288 R0
SYMATTR InstName R10
SYMATTR Value 10k
SYMBOL res -1280 -320 R90
WINDOW 0 0 56 VBottom 2
WINDOW 3 32 56 VTop 2
SYMATTR InstName R11
SYMATTR Value {RV_23_1}
SYMBOL res -1056 -320 R90
WINDOW 0 0 56 VBottom 2
WINDOW 3 32 56 VTop 2
SYMATTR InstName R12
SYMATTR Value {RV_12_1}
SYMBOL AudioProject\\TL072 -800 -656 R0
SYMATTR InstName U1
TEXT -1344 -984 Left 2 !.ac oct 10000 100 500
TEXT -1768 -24 Left 2 !.step param Travel_1 0 1 0.1\n.param R_Total_1 = 10k\n.param TaperRatio_1 = table(Travel_1, 0,0, 0.1,0.015, 0.2,0.035, 0.3,0.06, 0.4,0.10, 0.5,0.15, 0.6,0.24, 0.7,0.36, 0.8,0.54, 0.9,0.78, 1,1)\n.param RV_12_1 = {max(R_Total_1 * TaperRatio_1, 0.01 * R_Total_1)}\n.param RV_23_1 = {max(R_Total_1 * (1 - TaperRatio_1), 0.01 * R_Total_1)}
TEXT -1760 -56 Left 2 ;PTD902-2015K-A103
TEXT -1360 -368 Left 2 ;PTD902-2015K-A103
TEXT -1344 -952 Left 2 ;.noise V(vn) V1 oct 10000 10 40k
