Version 4.1
SHEET 1 880 1852
WIRE -672 -96 -1280 -96
WIRE -384 -96 -672 -96
WIRE -672 -32 -672 -96
WIRE -1280 64 -1280 -96
WIRE -672 80 -672 48
WIRE -1280 192 -1280 144
WIRE -1136 192 -1280 192
WIRE -1280 224 -1280 192
WIRE -1136 240 -1136 192
WIRE -672 240 -672 144
WIRE -1280 368 -1280 304
WIRE -1136 368 -1136 304
WIRE -1136 368 -1280 368
WIRE -1024 368 -1136 368
WIRE -880 368 -944 368
WIRE -816 368 -880 368
WIRE -672 368 -672 320
WIRE -672 368 -736 368
WIRE -1280 448 -1280 368
WIRE -1136 448 -1136 368
WIRE -672 464 -672 368
WIRE -384 464 -384 -96
WIRE -144 464 -384 464
WIRE -384 528 -384 464
WIRE -336 528 -384 528
WIRE -240 528 -272 528
WIRE -1280 544 -1280 528
WIRE -1136 544 -1136 512
WIRE -1136 544 -1280 544
WIRE -880 560 -880 368
WIRE -336 560 -880 560
WIRE -1280 592 -1280 544
WIRE -672 592 -672 544
WIRE -336 592 -368 592
WIRE -336 624 -368 624
WIRE -672 704 -672 656
WIRE -1280 832 -1280 672
WIRE -1280 832 -1616 832
WIRE -672 832 -672 784
WIRE -672 832 -1280 832
FLAG -1104 -368 VN
FLAG -1104 -288 0
FLAG -976 -288 0
FLAG -880 -288 0
FLAG -976 -368 V+
FLAG -880 -368 V-
FLAG -240 528 V+
FLAG -368 624 V-
FLAG -368 592 0
FLAG -1616 832 VN
FLAG -144 464 VS
SYMBOL voltage -1104 -384 R0
WINDOW 123 24 44 Left 2
WINDOW 39 0 0 Left 0
SYMATTR Value2 AC 1
SYMATTR InstName V1
SYMATTR Value ""
SYMBOL voltage -976 -384 R0
SYMATTR InstName V2
SYMATTR Value 18
SYMBOL voltage -880 -384 R0
SYMATTR InstName V3
SYMATTR Value -18
SYMBOL cap -1152 240 R0
SYMATTR InstName C1
SYMATTR Value 100n
SYMBOL cap -1152 448 R0
SYMATTR InstName C2
SYMATTR Value 100n
SYMBOL res -1296 576 R0
SYMATTR InstName R1
SYMATTR Value 1.8k
SYMBOL res -1296 48 R0
SYMATTR InstName R2
SYMATTR Value 1.8k
SYMBOL res -928 352 R90
WINDOW 0 0 56 VBottom 2
WINDOW 3 32 56 VTop 2
SYMATTR InstName R3
SYMATTR Value 12k
SYMBOL res -688 64 M180
WINDOW 0 36 76 Left 2
WINDOW 3 36 40 Left 2
SYMATTR InstName R4
SYMATTR Value 1k
SYMBOL res -688 800 M180
WINDOW 0 36 76 Left 2
WINDOW 3 36 40 Left 2
SYMATTR InstName R5
SYMATTR Value 1k
SYMBOL res -720 352 R90
WINDOW 0 0 56 VBottom 2
WINDOW 3 32 56 VTop 2
SYMATTR InstName R6
SYMATTR Value 1k
SYMBOL cap -688 144 M180
WINDOW 0 24 56 Left 2
WINDOW 3 24 8 Left 2
SYMATTR InstName C3
SYMATTR Value 15n
SYMBOL cap -688 656 M180
WINDOW 0 24 56 Left 2
WINDOW 3 24 8 Left 2
SYMATTR InstName C4
SYMATTR Value 15n
SYMBOL res -1264 320 R180
WINDOW 0 36 76 Left 2
WINDOW 3 36 40 Left 2
SYMATTR InstName R7
SYMATTR Value {RV_12_2}
SYMBOL res -1264 544 R180
WINDOW 0 36 76 Left 2
WINDOW 3 36 40 Left 2
SYMATTR InstName R8
SYMATTR Value {RV_23_2}
SYMBOL res -656 336 R180
WINDOW 0 36 76 Left 2
WINDOW 3 36 40 Left 2
SYMATTR InstName R9
SYMATTR Value {RV_12_3}
SYMBOL res -656 560 R180
WINDOW 0 36 76 Left 2
WINDOW 3 36 40 Left 2
SYMATTR InstName R10
SYMATTR Value {RV_23_3}
SYMBOL AudioProject\\NE5532 -304 576 R0
SYMATTR InstName U1
TEXT -1624 -376 Left 2 !.ac oct 100 10 40k
TEXT -1560 184 Left 2 ;PTD902-2215K-B103
TEXT -656 200 Left 2 ;PTD902-2215K-B103
TEXT -1736 912 Left 2 !.step param Travel_2 0 1 0.5\n.param R_Total_2 = 10k\n.param TaperRatio_2 = table(Travel_2, 0,0, 0.1,0.05, 0.2,0.12, 0.3,0.22, 0.4,0.35, 0.5,0.5, 0.6,0.65, 0.7,0.78, 0.8,0.88, 0.9,0.95, 1,1)\n.param RV_12_2 = {max(R_Total_2 * TaperRatio_2, 0.01 * R_Total_2)}\n.param RV_23_2 = {max(R_Total_2 * (1 - TaperRatio_2), 0.01 * R_Total_2)}
TEXT -1736 1088 Left 2 !.step param Travel_3 0 1 0.5\n.param R_Total_3 = 10k\n.param TaperRatio_3 = table(Travel_3, 0,0, 0.1,0.05, 0.2,0.12, 0.3,0.22, 0.4,0.35, 0.5,0.5, 0.6,0.65, 0.7,0.78, 0.8,0.88, 0.9,0.95, 1,1)\n.param RV_12_3 = {max(R_Total_3 * TaperRatio_3, 0.01 * R_Total_3)}\n.param RV_23_3 = {max(R_Total_3 * (1 - TaperRatio_3), 0.01 * R_Total_3)}
TEXT -1624 -344 Left 2 ;.noise V(vs) V1 oct 100 10 40k
