Version 4.1
SHEET 1 880 1852
WIRE -288 -112 -896 -112
WIRE 0 -112 -288 -112
WIRE -896 -80 -896 -112
WIRE -288 -80 -288 -112
WIRE -896 48 -896 0
WIRE -752 48 -896 48
WIRE -896 96 -896 48
WIRE -752 96 -752 48
WIRE -288 96 -288 0
WIRE -896 224 -896 176
WIRE -752 224 -752 160
WIRE -752 224 -896 224
WIRE -640 224 -752 224
WIRE -416 224 -560 224
WIRE -384 224 -416 224
WIRE -288 224 -288 176
WIRE -288 224 -320 224
WIRE -896 288 -896 224
WIRE -288 288 -288 224
WIRE -752 304 -752 224
WIRE 0 320 0 -112
WIRE 240 320 0 320
WIRE 0 384 0 320
WIRE 48 384 0 384
WIRE 144 384 112 384
WIRE -896 400 -896 368
WIRE -752 400 -752 368
WIRE -752 400 -896 400
WIRE -416 416 -416 224
WIRE 48 416 -416 416
WIRE -896 448 -896 400
WIRE -288 448 -288 368
WIRE 48 448 16 448
WIRE 48 480 16 480
WIRE -896 560 -896 528
WIRE -896 560 -1232 560
WIRE -288 560 -288 528
WIRE -288 560 -896 560
WIRE -320 864 -928 864
WIRE -32 864 -320 864
WIRE -320 928 -320 864
WIRE -928 1024 -928 864
WIRE -320 1040 -320 1008
WIRE -928 1152 -928 1104
WIRE -784 1152 -928 1152
WIRE -928 1200 -928 1152
WIRE -784 1200 -784 1152
WIRE -320 1200 -320 1104
WIRE -928 1328 -928 1280
WIRE -784 1328 -784 1264
WIRE -784 1328 -928 1328
WIRE -672 1328 -784 1328
WIRE -528 1328 -592 1328
WIRE -464 1328 -528 1328
WIRE -320 1328 -320 1280
WIRE -320 1328 -384 1328
WIRE -928 1392 -928 1328
WIRE -320 1392 -320 1328
WIRE -784 1408 -784 1328
WIRE -32 1424 -32 864
WIRE 208 1424 -32 1424
WIRE -32 1488 -32 1424
WIRE 16 1488 -32 1488
WIRE 112 1488 80 1488
WIRE -928 1504 -928 1472
WIRE -784 1504 -784 1472
WIRE -784 1504 -928 1504
WIRE -528 1520 -528 1328
WIRE 16 1520 -528 1520
WIRE -928 1552 -928 1504
WIRE -320 1552 -320 1472
WIRE 16 1552 -16 1552
WIRE 16 1584 -16 1584
WIRE -320 1664 -320 1616
WIRE -928 1792 -928 1632
WIRE -928 1792 -1264 1792
WIRE -320 1792 -320 1744
WIRE -320 1792 -928 1792
FLAG 144 384 V+
FLAG 16 480 V-
FLAG 16 448 0
FLAG -1104 -368 VIN
FLAG -1104 -288 0
FLAG -976 -288 0
FLAG -880 -288 0
FLAG -976 -368 V+
FLAG -880 -368 V-
FLAG -1232 560 VIN
FLAG 240 320 VOUT
FLAG 112 1488 V+
FLAG -16 1584 V-
FLAG -16 1552 0
FLAG -1264 1792 VIN
FLAG 208 1424 VOUT2
SYMBOL voltage -1104 -384 R0
WINDOW 123 24 44 Left 2
WINDOW 39 0 0 Left 0
SYMATTR Value2 AC 1
SYMATTR InstName V1
SYMATTR Value ""
SYMBOL voltage -976 -384 R0
SYMATTR InstName V2
SYMATTR Value 15
SYMBOL voltage -880 -384 R0
SYMATTR InstName V3
SYMATTR Value -15
SYMBOL AudioProject\\NE5532 80 432 R0
SYMATTR InstName U1
SYMBOL cap -768 96 R0
SYMATTR InstName C1
SYMATTR Value 100n
SYMBOL cap -768 304 R0
SYMATTR InstName C2
SYMATTR Value 100n
SYMBOL cap -320 208 R90
WINDOW 0 0 32 VBottom 2
WINDOW 3 32 32 VTop 2
SYMATTR InstName C3
SYMATTR Value 12n
SYMBOL res -912 432 R0
SYMATTR InstName R1
SYMATTR Value 1.8k
SYMBOL res -912 -96 R0
SYMATTR InstName R2
SYMATTR Value 1.8k
SYMBOL res -544 208 R90
WINDOW 0 0 56 VBottom 2
WINDOW 3 32 56 VTop 2
SYMATTR InstName R3
SYMATTR Value 12k
SYMBOL res -304 -96 R0
SYMATTR InstName R4
SYMATTR Value 1.2k
SYMBOL res -304 432 R0
SYMATTR InstName R5
SYMATTR Value 1.2k
SYMBOL res -880 80 M0
SYMATTR InstName RG1
SYMATTR Value {10k*(1-posb)+20}
SYMBOL res -880 384 R180
WINDOW 0 36 76 Left 2
WINDOW 3 36 40 Left 2
SYMATTR InstName RV1
SYMATTR Value {10k*posb+20}
SYMBOL res -304 80 R0
SYMATTR InstName RG2
SYMATTR Value {10k*(1-post)+20}
SYMBOL res -304 384 M180
WINDOW 0 36 76 Left 2
WINDOW 3 36 40 Left 2
SYMATTR InstName RV2
SYMATTR Value {10k*post+20}
SYMBOL AudioProject\\NE5532 48 1536 R0
SYMATTR InstName U2
SYMBOL cap -800 1200 R0
SYMATTR InstName C4
SYMATTR Value 100n
SYMBOL cap -800 1408 R0
SYMATTR InstName C5
SYMATTR Value 100n
SYMBOL res -944 1536 R0
SYMATTR InstName R6
SYMATTR Value 1.8k
SYMBOL res -944 1008 R0
SYMATTR InstName R7
SYMATTR Value 1.8k
SYMBOL res -576 1312 R90
WINDOW 0 0 56 VBottom 2
WINDOW 3 32 56 VTop 2
SYMATTR InstName R8
SYMATTR Value 12k
SYMBOL res -336 1024 M180
WINDOW 0 36 76 Left 2
WINDOW 3 36 40 Left 2
SYMATTR InstName R9
SYMATTR Value 1k
SYMBOL res -336 1760 M180
WINDOW 0 36 76 Left 2
WINDOW 3 36 40 Left 2
SYMATTR InstName R10
SYMATTR Value 1k
SYMBOL res -912 1184 M0
SYMATTR InstName RG3
SYMATTR Value {10k*(1-posb)+20}
SYMBOL res -912 1488 R180
WINDOW 0 36 76 Left 2
WINDOW 3 36 40 Left 2
SYMATTR InstName RV3
SYMATTR Value {10k*posb+20}
SYMBOL res -336 1184 R0
SYMATTR InstName RG4
SYMATTR Value {10k*(1-post)+20}
SYMBOL res -336 1488 M180
WINDOW 0 36 76 Left 2
WINDOW 3 36 40 Left 2
SYMATTR InstName RV4
SYMATTR Value {10k*post+20}
SYMBOL res -368 1312 R90
WINDOW 0 0 56 VBottom 2
WINDOW 3 32 56 VTop 2
SYMATTR InstName R11
SYMATTR Value 1k
SYMBOL cap -336 1104 M180
WINDOW 0 24 56 Left 2
WINDOW 3 24 8 Left 2
SYMATTR InstName C6
SYMATTR Value 15n
SYMBOL cap -336 1616 M180
WINDOW 0 24 56 Left 2
WINDOW 3 24 8 Left 2
SYMATTR InstName C7
SYMATTR Value 15n
TEXT -696 -488 Left 2 !.step param posb 0 1 0.33
TEXT -696 -512 Left 2 !.step param post 0 1 0.33
TEXT -1120 -528 Left 2 !.ac oct 100 10 100k
TEXT -696 -448 Left 2 ;.param post = 0.5
TEXT -696 -424 Left 2 ;.param posb = 0.5
