Version 4.1
SHEET 1 880 680
WIRE 64 96 64 48
WIRE 256 112 160 112
WIRE 432 112 256 112
WIRE 544 112 432 112
WIRE 256 144 256 112
WIRE 352 144 320 144
WIRE 160 176 160 112
WIRE 256 176 160 176
WIRE -432 208 -480 208
WIRE -320 208 -352 208
WIRE -224 208 -240 208
WIRE -208 208 -224 208
WIRE -96 208 -128 208
WIRE 64 208 64 160
WIRE 64 208 -16 208
WIRE 256 208 64 208
WIRE 256 240 224 240
WIRE -224 336 -224 208
WIRE 96 336 -224 336
WIRE 432 336 432 112
WIRE 432 336 160 336
FLAG -480 208 VIN
FLAG -480 -304 VIN
FLAG -480 -224 0
FLAG 352 144 VCC+
FLAG 224 240 VCC-
FLAG -368 -304 VCC+
FLAG -288 -304 VCC-
FLAG -368 -224 0
FLAG -288 -224 0
FLAG 544 112 VOUT
FLAG 64 48 0
SYMBOL voltage -480 -320 R0
WINDOW 123 24 44 Left 2
WINDOW 39 0 0 Left 0
SYMATTR Value2 AC 1
SYMATTR InstName V1
SYMATTR Value ""
SYMBOL AudioProject\\TL072 288 192 R0
SYMATTR InstName U1
SYMBOL voltage -368 -320 R0
SYMATTR InstName V2
SYMATTR Value 15
SYMBOL voltage -288 -320 R0
SYMATTR InstName V3
SYMATTR Value -15
SYMBOL res -336 192 R90
WINDOW 0 0 56 VBottom 2
WINDOW 3 32 56 VTop 2
SYMATTR InstName R4
SYMATTR Value 2k
SYMBOL res -224 192 R90
WINDOW 0 0 56 VBottom 2
WINDOW 3 32 56 VTop 2
SYMATTR InstName R5
SYMATTR Value {R}
SYMBOL res -112 192 R90
WINDOW 0 0 56 VBottom 2
WINDOW 3 32 56 VTop 2
SYMATTR InstName R6
SYMATTR Value {R}
SYMBOL res 0 192 R90
WINDOW 0 0 56 VBottom 2
WINDOW 3 32 56 VTop 2
SYMATTR InstName R7
SYMATTR Value 2k
SYMBOL cap 160 320 R90
WINDOW 0 0 32 VBottom 2
WINDOW 3 32 32 VTop 2
SYMATTR InstName C1
SYMATTR Value 5.6n
SYMBOL cap 48 96 R0
SYMATTR InstName C2
SYMATTR Value 2.7n
TEXT 256 -328 Left 2 !.ac oct 100 10 100k
TEXT 256 -304 Left 2 !.lib opamp.sub
TEXT 256 -208 Left 2 !.param R = ((1k*(1-pos))+20)
TEXT 256 -240 Left 2 !.step param pos 0 1 0.25
