Version 4.1
SHEET 1 1264 680
WIRE 960 -608 960 -656
WIRE 1152 -512 1024 -512
WIRE 1024 -464 1024 -512
WIRE 1056 -464 1024 -464
WIRE 1152 -448 1152 -512
WIRE 1152 -448 1120 -448
WIRE 1184 -448 1152 -448
WIRE 528 -432 432 -432
WIRE 672 -432 592 -432
WIRE 768 -432 672 -432
WIRE 960 -432 960 -528
WIRE 960 -432 832 -432
WIRE 1056 -432 960 -432
WIRE 672 -304 672 -432
WIRE 768 -304 672 -304
WIRE 1152 -304 1152 -448
WIRE 1152 -304 848 -304
FLAG 1184 -448 VOUT
FLAG 432 -432 VIN
FLAG 960 -656 0
FLAG 608 -960 VIN
FLAG 608 -880 0
SYMBOL OpAmps\\opamp 1088 -512 R0
SYMATTR InstName U2
SYMBOL cap 832 -448 R90
WINDOW 0 0 32 VBottom 2
WINDOW 3 32 32 VTop 2
SYMATTR InstName C2
SYMATTR Value 1”
SYMBOL cap 592 -448 R90
WINDOW 0 0 32 VBottom 2
WINDOW 3 32 32 VTop 2
SYMATTR InstName C1
SYMATTR Value 1”
SYMBOL res 864 -320 R90
WINDOW 0 0 56 VBottom 2
WINDOW 3 32 56 VTop 2
SYMATTR InstName R1
SYMATTR Value {R1}
SYMBOL res 976 -512 R180
WINDOW 0 36 76 Left 2
WINDOW 3 36 40 Left 2
SYMATTR InstName R2
SYMATTR Value {R2}
SYMBOL voltage 608 -976 R0
WINDOW 123 24 44 Left 2
WINDOW 39 0 0 Left 0
SYMATTR Value2 AC 1
SYMATTR InstName V1
SYMATTR Value ""
TEXT 808 -968 Left 2 !.ac oct 100 10 100k
TEXT 808 -944 Left 2 !.lib opamp.sub
TEXT 808 -912 Left 2 !.step param R2 1k 11k 2k\n.param R1 = (R2/2)
