Version 4.1
SHEET 1 880 756
WIRE -336 -272 -400 -272
WIRE -208 -272 -272 -272
WIRE -208 -160 -208 -272
WIRE -208 -160 -240 -160
WIRE -160 -160 -208 -160
WIRE -32 -160 -80 -160
WIRE -544 -144 -608 -144
WIRE -400 -144 -400 -272
WIRE -400 -144 -464 -144
WIRE -304 -144 -400 -144
WIRE -608 -32 -608 -144
WIRE -544 -32 -608 -32
WIRE -400 -32 -464 -32
WIRE -160 -16 -224 -16
WIRE -32 -16 -32 -160
WIRE -32 -16 -96 -16
WIRE -784 80 -896 80
WIRE -608 80 -608 -32
WIRE -608 80 -704 80
WIRE -560 80 -608 80
WIRE -400 96 -400 -32
WIRE -400 96 -496 96
WIRE -336 96 -400 96
WIRE -224 96 -224 -16
WIRE -224 96 -256 96
WIRE -192 96 -224 96
WIRE -560 112 -608 112
WIRE -32 112 -32 -16
WIRE -32 112 -128 112
WIRE 144 112 -32 112
WIRE 272 112 224 112
WIRE 336 112 272 112
WIRE 464 112 416 112
WIRE 272 208 272 112
WIRE 336 208 272 208
WIRE -608 224 -608 112
WIRE -336 224 -608 224
WIRE -32 224 -32 112
WIRE -32 224 -256 224
WIRE 464 224 464 112
WIRE 464 224 400 224
WIRE 576 224 464 224
WIRE 144 240 112 240
WIRE 272 240 224 240
WIRE 336 240 272 240
WIRE -608 272 -608 224
WIRE 272 288 272 240
WIRE -608 384 -608 352
WIRE 272 384 272 368
FLAG -896 80 VIN
FLAG -864 -576 VIN
FLAG -864 -496 0
FLAG -192 128 0
FLAG -240 -128 0
FLAG -608 384 0
FLAG -400 -144 VLP
FLAG -32 112 VBP
FLAG -400 96 VHP
FLAG 272 384 0
FLAG 112 240 VIN
FLAG 576 224 VOUT
SYMBOL OpAmps\\opamp -528 32 R0
SYMATTR InstName U1
SYMBOL res -688 64 R90
WINDOW 0 0 56 VBottom 2
WINDOW 3 32 56 VTop 2
SYMATTR InstName RIN1
SYMATTR Value 1k
SYMBOL voltage -864 -592 R0
WINDOW 123 24 44 Left 2
WINDOW 39 0 0 Left 0
SYMATTR Value2 AC 1
SYMATTR InstName V1
SYMATTR Value ""
SYMBOL res -448 -48 R90
WINDOW 0 0 56 VBottom 2
WINDOW 3 32 56 VTop 2
SYMATTR InstName RF1
SYMATTR Value 3k
SYMBOL res -240 80 R90
WINDOW 0 0 56 VBottom 2
WINDOW 3 32 56 VTop 2
SYMATTR InstName R1
SYMATTR Value {R}
SYMBOL OpAmps\\opamp -160 48 R0
SYMATTR InstName U2
SYMBOL cap -96 -32 R90
WINDOW 0 0 32 VBottom 2
WINDOW 3 32 32 VTop 2
SYMATTR InstName C1
SYMATTR Value 10n
SYMBOL res -64 -176 R90
WINDOW 0 0 56 VBottom 2
WINDOW 3 32 56 VTop 2
SYMATTR InstName R2
SYMATTR Value {R}
SYMBOL OpAmps\\opamp -272 -208 M0
SYMATTR InstName U3
SYMBOL cap -336 -288 M90
WINDOW 0 0 32 VBottom 2
WINDOW 3 32 32 VTop 2
SYMATTR InstName C2
SYMATTR Value 10n
SYMBOL res -448 -160 R90
WINDOW 0 0 56 VBottom 2
WINDOW 3 32 56 VTop 2
SYMATTR InstName RF2
SYMATTR Value 3k
SYMBOL res -240 208 R90
WINDOW 0 0 56 VBottom 2
WINDOW 3 32 56 VTop 2
SYMATTR InstName R3
SYMATTR Value {RQ}
SYMBOL res -624 256 R0
SYMATTR InstName RG1
SYMATTR Value 1k
SYMBOL OpAmps\\opamp 368 160 R0
SYMATTR InstName U4
SYMBOL res 240 224 R90
WINDOW 0 0 56 VBottom 2
WINDOW 3 32 56 VTop 2
SYMATTR InstName R4
SYMATTR Value 1k
SYMBOL res 240 96 R90
WINDOW 0 0 56 VBottom 2
WINDOW 3 32 56 VTop 2
SYMATTR InstName R5
SYMATTR Value 1k
SYMBOL res 256 272 R0
SYMATTR InstName R6
SYMATTR Value 1k
SYMBOL res 432 96 R90
WINDOW 0 0 56 VBottom 2
WINDOW 3 32 56 VTop 2
SYMATTR InstName R7
SYMATTR Value 1k
TEXT -680 -600 Left 2 !.ac oct 100 10 100k
TEXT -680 -576 Left 2 !.lib opamp.sub
TEXT -688 -520 Left 2 !.step dec param R 1k 100k 1\n.step dec param RQ 660 4.8k 1
