Version 4.1
SHEET 1 1184 680
WIRE 224 -272 32 -272
WIRE 464 -272 288 -272
WIRE -96 -144 -176 -144
WIRE 32 -144 32 -272
WIRE 32 -144 -16 -144
WIRE 112 -144 32 -144
WIRE 256 -144 192 -144
WIRE 320 -144 256 -144
WIRE 464 -144 464 -272
WIRE 464 -144 400 -144
WIRE 512 -144 464 -144
WIRE 656 -144 592 -144
WIRE 256 -16 256 -144
WIRE 656 16 656 -144
WIRE 656 16 400 16
WIRE -176 48 -176 -144
WIRE 400 80 400 16
WIRE 448 80 400 80
WIRE 544 80 512 80
WIRE 256 112 256 64
WIRE 448 112 256 112
WIRE 448 144 416 144
WIRE 256 160 256 112
WIRE 448 176 416 176
WIRE -176 320 -176 48
WIRE -96 320 -176 320
WIRE 112 320 -16 320
WIRE 256 320 256 224
WIRE 256 320 192 320
WIRE 320 320 256 320
WIRE 464 320 400 320
WIRE 656 320 656 16
WIRE 656 320 544 320
FLAG 544 80 VCC+
FLAG 416 176 VCC-
FLAG 416 144 0
FLAG -256 -512 VIN
FLAG -256 -432 0
FLAG -128 -432 0
FLAG -32 -432 0
FLAG -128 -512 VCC+
FLAG -32 -512 VCC-
FLAG 656 16 VOUT
FLAG -176 48 VIN
SYMBOL res 272 80 R180
WINDOW 0 36 76 Left 2
WINDOW 3 36 40 Left 2
SYMATTR InstName RN1
SYMATTR Value 10k
SYMBOL cap 240 160 R0
SYMATTR InstName CN1
SYMATTR Value {Cn}
SYMBOL res 96 -160 M90
WINDOW 0 0 56 VBottom 2
WINDOW 3 32 56 VTop 2
SYMATTR InstName RG1
SYMATTR Value {100k*(1-posb)}
SYMBOL res 416 -160 R90
WINDOW 0 0 56 VBottom 2
WINDOW 3 32 56 VTop 2
SYMATTR InstName RV1
SYMATTR Value {100k*posb}
SYMBOL res 96 304 M90
WINDOW 0 0 56 VBottom 2
WINDOW 3 32 56 VTop 2
SYMATTR InstName RG2
SYMATTR Value {100k*(1-post)}
SYMBOL res 416 304 R90
WINDOW 0 0 56 VBottom 2
WINDOW 3 32 56 VTop 2
SYMATTR InstName RV2
SYMATTR Value {100k*post}
SYMBOL cap 288 -288 R90
WINDOW 0 0 32 VBottom 2
WINDOW 3 32 32 VTop 2
SYMATTR InstName CB1
SYMATTR Value {Cb}
SYMBOL res 0 -160 R90
WINDOW 0 0 56 VBottom 2
WINDOW 3 32 56 VTop 2
SYMATTR InstName R1
SYMATTR Value 68k
SYMBOL res 608 -160 R90
WINDOW 0 0 56 VBottom 2
WINDOW 3 32 56 VTop 2
SYMATTR InstName R2
SYMATTR Value 68k
SYMBOL res 0 304 R90
WINDOW 0 0 56 VBottom 2
WINDOW 3 32 56 VTop 2
SYMATTR InstName R3
SYMATTR Value 24k
SYMBOL res 560 304 R90
WINDOW 0 0 56 VBottom 2
WINDOW 3 32 56 VTop 2
SYMATTR InstName R4
SYMATTR Value 24k
SYMBOL AudioProject\\TL072 480 128 R0
SYMATTR InstName U1
SYMBOL voltage -256 -528 R0
WINDOW 123 24 44 Left 2
WINDOW 39 0 0 Left 0
SYMATTR Value2 AC 1
SYMATTR InstName V1
SYMATTR Value ""
SYMBOL voltage -128 -528 R0
SYMATTR InstName V2
SYMATTR Value 15
SYMBOL voltage -32 -528 R0
SYMATTR InstName V3
SYMATTR Value -15
TEXT 392 -656 Left 2 !.param posb = 0.4
TEXT 152 -656 Left 2 !.param post = 0.6
TEXT 152 -632 Left 2 !.param Cn = 300p
TEXT 416 -632 Left 2 !.param Cb = 27n
TEXT -272 -672 Left 2 !.ac oct 100 10 100k
TEXT -272 -648 Left 2 !.lib opamp.sub
TEXT 152 -576 Left 2 ;Cb=10n,27n,100n
TEXT 152 -552 Left 2 ;Cn=160p,300p,500p
