Version 4.1
SHEET 1 880 680
WIRE 240 80 240 16
WIRE 432 160 304 160
WIRE 304 208 304 160
WIRE 336 208 304 208
WIRE 432 224 432 160
WIRE 432 224 400 224
WIRE 464 224 432 224
WIRE -192 240 -288 240
WIRE -48 240 -112 240
WIRE 32 240 -48 240
WIRE 240 240 240 144
WIRE 240 240 112 240
WIRE 336 240 240 240
WIRE -48 368 -48 240
WIRE 64 368 -48 368
WIRE 432 368 432 224
WIRE 432 368 128 368
FLAG 464 224 VOUT
FLAG -288 240 VIN
FLAG 240 16 0
FLAG -112 -288 VIN
FLAG -112 -208 0
SYMBOL OpAmps\\opamp 368 160 R0
SYMATTR InstName U1
SYMBOL voltage -112 -304 R0
WINDOW 123 24 44 Left 2
WINDOW 39 0 0 Left 0
SYMATTR Value2 AC 1
SYMATTR InstName V1
SYMATTR Value ""
SYMBOL cap 224 80 R0
SYMATTR InstName C2
SYMATTR Value 2.83n
SYMBOL cap 128 352 R90
WINDOW 0 0 32 VBottom 2
WINDOW 3 32 32 VTop 2
SYMATTR InstName C1
SYMATTR Value 5.66n
SYMBOL res -96 224 R90
WINDOW 0 0 56 VBottom 2
WINDOW 3 32 56 VTop 2
SYMATTR InstName R1
SYMATTR Value {R}
SYMBOL res 128 224 R90
WINDOW 0 0 56 VBottom 2
WINDOW 3 32 56 VTop 2
SYMATTR InstName R2
SYMATTR Value {R}
TEXT 88 -296 Left 2 !.ac oct 100 10 100k
TEXT 88 -272 Left 2 !.lib opamp.sub
TEXT 88 -240 Left 2 !.step param R list 2k 2.5k 3k
