Version 4.1
SHEET 1 1284 2032
WIRE -1040 800 -1136 800
WIRE -896 800 -960 800
WIRE -816 800 -896 800
WIRE -32 800 -736 800
WIRE -1136 896 -1136 800
WIRE -1136 896 -1200 896
WIRE -448 896 -1136 896
WIRE -336 896 -368 896
WIRE -304 896 -336 896
WIRE -32 896 -32 800
WIRE -32 896 -224 896
WIRE -32 960 -32 896
WIRE -32 960 -272 960
WIRE 48 960 -32 960
WIRE -272 1008 -272 960
WIRE -192 1008 -272 1008
WIRE -80 1008 -128 1008
WIRE -336 1040 -336 896
WIRE -192 1040 -336 1040
WIRE -448 1072 -480 1072
WIRE -336 1072 -368 1072
WIRE -192 1072 -336 1072
WIRE -336 1104 -336 1072
WIRE -192 1104 -240 1104
WIRE -896 1136 -896 800
WIRE -896 1136 -1104 1136
WIRE -1104 1216 -1104 1136
WIRE -336 1232 -336 1184
WIRE 352 1232 -336 1232
WIRE -1392 1312 -1536 1312
WIRE 1280 1344 -1056 1344
WIRE -928 1392 -992 1392
WIRE -704 1392 -928 1392
WIRE -1536 1408 -1536 1312
WIRE -992 1408 -992 1392
WIRE 112 1408 48 1408
WIRE 320 1408 112 1408
WIRE 1088 1408 1024 1408
WIRE 1280 1408 1280 1344
WIRE 1280 1408 1088 1408
WIRE 48 1424 48 1408
WIRE 1024 1424 1024 1408
WIRE -320 1456 -576 1456
WIRE 656 1456 400 1456
WIRE -928 1472 -928 1392
WIRE -896 1472 -928 1472
WIRE -784 1472 -832 1472
WIRE 112 1472 112 1408
WIRE 144 1472 112 1472
WIRE 256 1472 208 1472
WIRE 1088 1472 1088 1408
WIRE 1120 1472 1088 1472
WIRE 1232 1472 1184 1472
WIRE -1392 1504 -1392 1312
WIRE -1344 1504 -1392 1504
WIRE -1056 1504 -1056 1424
WIRE -1056 1504 -1264 1504
WIRE -992 1504 -992 1488
WIRE -992 1504 -1056 1504
WIRE -896 1504 -992 1504
WIRE -704 1504 -704 1392
WIRE -576 1504 -576 1456
WIRE -576 1504 -704 1504
WIRE -480 1504 -576 1504
WIRE -320 1504 -320 1456
WIRE -320 1504 -400 1504
WIRE -256 1504 -320 1504
WIRE -80 1504 -176 1504
WIRE 48 1504 48 1488
WIRE 48 1504 0 1504
WIRE 144 1504 48 1504
WIRE 320 1504 320 1408
WIRE 336 1504 320 1504
WIRE 352 1504 352 1232
WIRE 352 1504 336 1504
WIRE 400 1504 400 1456
WIRE 400 1504 352 1504
WIRE 496 1504 400 1504
WIRE 656 1504 656 1456
WIRE 656 1504 576 1504
WIRE 720 1504 656 1504
WIRE 896 1504 800 1504
WIRE 1024 1504 1024 1488
WIRE 1024 1504 976 1504
WIRE 1120 1504 1024 1504
WIRE -1104 1536 -1104 1296
WIRE -1104 1536 -1216 1536
WIRE -992 1536 -1104 1536
WIRE -896 1536 -992 1536
WIRE 144 1536 48 1536
WIRE 1120 1536 1024 1536
WIRE -1536 1552 -1536 1488
WIRE -1504 1552 -1536 1552
WIRE -896 1568 -944 1568
WIRE 144 1568 96 1568
WIRE 1120 1568 1072 1568
WIRE -1344 1616 -1392 1616
WIRE -1216 1616 -1216 1536
WIRE -1216 1616 -1264 1616
WIRE -1536 1632 -1536 1552
WIRE -992 1696 -992 1536
WIRE -256 1696 -992 1696
WIRE 336 1696 336 1504
WIRE 336 1696 -176 1696
WIRE -1536 1808 -1536 1712
WIRE -1392 1808 -1392 1616
WIRE -1392 1808 -1536 1808
FLAG 176 448 VS
FLAG 176 528 0
FLAG 304 528 0
FLAG 400 528 0
FLAG 304 448 V+
FLAG 400 448 V-
FLAG -240 1104 V-
FLAG -80 1008 V+
FLAG -480 1072 0
FLAG 48 960 VM1
FLAG 96 1568 V-
FLAG 256 1472 V+
FLAG -944 1568 V-
FLAG -784 1472 V+
FLAG 48 1536 0
FLAG 1072 1568 V-
FLAG 1232 1472 V+
FLAG 1024 1536 0
FLAG -1504 1552 0
FLAG -1200 896 VS
SYMBOL voltage 176 432 R0
WINDOW 123 24 44 Left 2
WINDOW 39 0 0 Left 0
SYMATTR Value2 AC 1
SYMATTR InstName V1
SYMATTR Value ""
SYMBOL voltage 304 432 R0
SYMATTR InstName V2
SYMATTR Value 18
SYMBOL voltage 400 432 R0
SYMATTR InstName V3
SYMATTR Value -18
SYMBOL res -352 1056 R90
WINDOW 0 0 56 VBottom 2
WINDOW 3 32 56 VTop 2
SYMATTR InstName R13
SYMATTR Value 2.2k
SYMBOL res -352 1088 R0
SYMATTR InstName R14
SYMATTR Value 2.2k
SYMBOL res -352 880 R90
WINDOW 0 0 56 VBottom 2
WINDOW 3 32 56 VTop 2
SYMATTR InstName R15
SYMATTR Value 4.7k
SYMBOL res -208 880 R90
WINDOW 0 0 56 VBottom 2
WINDOW 3 32 56 VTop 2
SYMATTR InstName R16
SYMATTR Value 4.7k
SYMBOL cap 32 1424 R0
SYMATTR InstName C3
SYMATTR Value 10n
SYMBOL res -1008 1392 R0
SYMATTR InstName R17
SYMATTR Value 12k
SYMBOL res 16 1488 R90
WINDOW 0 0 56 VBottom 2
WINDOW 3 32 56 VTop 2
SYMATTR InstName R18
SYMATTR Value 6.8k
SYMBOL cap 1008 1424 R0
SYMATTR InstName C4
SYMATTR Value 47n
SYMBOL res 992 1488 R90
WINDOW 0 0 56 VBottom 2
WINDOW 3 32 56 VTop 2
SYMATTR InstName R19
SYMATTR Value 6.8k
SYMBOL res -160 1680 R90
WINDOW 0 0 56 VBottom 2
WINDOW 3 32 56 VTop 2
SYMATTR InstName R20
SYMATTR Value 4.7k
SYMBOL res -1248 1488 R90
WINDOW 0 0 56 VBottom 2
WINDOW 3 32 56 VTop 2
SYMATTR InstName R21
SYMATTR Value 4.7k
SYMBOL res -1248 1600 R90
WINDOW 0 0 56 VBottom 2
WINDOW 3 32 56 VTop 2
SYMATTR InstName R22
SYMATTR Value 470
SYMBOL res -1120 1200 R0
SYMATTR InstName R23
SYMATTR Value 1k
SYMBOL res -1072 1328 R0
SYMATTR InstName R24
SYMATTR Value 12k
SYMBOL AudioProject\\TL072 1152 1520 R0
SYMATTR InstName U5
SYMBOL AudioProject\\TL072 176 1520 R0
SYMATTR InstName U6
SYMBOL AudioProject\\TL072 -864 1520 R0
SYMATTR InstName U7
SYMBOL AudioProject\\TL072 -160 1056 R0
SYMATTR InstName U8
SYMBOL res -944 784 R90
WINDOW 0 0 56 VBottom 2
WINDOW 3 32 56 VTop 2
SYMATTR InstName R25
SYMATTR Value {RV_23_4}
SYMBOL res -720 784 R90
WINDOW 0 0 56 VBottom 2
WINDOW 3 32 56 VTop 2
SYMATTR InstName R26
SYMATTR Value {RV_12_4}
SYMBOL res -1520 1504 R180
WINDOW 0 36 76 Left 2
WINDOW 3 36 40 Left 2
SYMATTR InstName R27
SYMATTR Value {RV_12_6}
SYMBOL res -1520 1728 R180
WINDOW 0 36 76 Left 2
WINDOW 3 36 40 Left 2
SYMATTR InstName R28
SYMATTR Value {RV_23_6}
SYMBOL res -384 1488 R90
WINDOW 0 0 56 VBottom 2
WINDOW 3 32 56 VTop 2
SYMATTR InstName R29
SYMATTR Value {RV_12_7}
SYMBOL res -160 1488 R90
WINDOW 0 0 56 VBottom 2
WINDOW 3 32 56 VTop 2
SYMATTR InstName R30
SYMATTR Value {RV_23_7}
SYMBOL res 592 1488 R90
WINDOW 0 0 56 VBottom 2
WINDOW 3 32 56 VTop 2
SYMATTR InstName R31
SYMATTR Value {RV_12_7}
SYMBOL res 816 1488 R90
WINDOW 0 0 56 VBottom 2
WINDOW 3 32 56 VTop 2
SYMATTR InstName R32
SYMATTR Value {RV_23_7}
TEXT 144 344 Left 2 !.ac oct 100 10 40k
TEXT -2176 584 Left 2 !.param Travel_4 = 0.2\n.param R_Total_4 = 10k\n.param TaperRatio_4 = table(Travel_4, 0,0, 0.1,0.05, 0.2,0.12, 0.3,0.22, 0.4,0.35, 0.5,0.5, 0.6,0.65, 0.7,0.78, 0.8,0.88, 0.9,0.95, 1,1)\n.param RV_12_4 = {max(R_Total_4 * TaperRatio_4, 0.01 * R_Total_4)}\n.param RV_23_4 = {max(R_Total_4 * (1 - TaperRatio_4), 0.01 * R_Total_4)}
TEXT -2240 1904 Left 2 !.param Travel_6  = 0.5\n.param R_Total_6 = 100k\n.param TaperRatio_6 = table(Travel_6,  0,0, 0.1,0.05, 0.2,0.12, 0.3,0.22, 0.4,0.35, 0.5,0.5, 0.6,0.65, 0.7,0.78, 0.8,0.88, 0.9,0.95, 1,1)\n.param RV_12_6 = {max(R_Total_6 * TaperRatio_6, 0.01 * R_Total_6)}\n.param RV_23_6 = {max(R_Total_6 * (1 - TaperRatio_6), 0.01 * R_Total_6)}
TEXT -264 1904 Left 2 !.step param Travel_7 0 1 0.1\n.param R_Total_7 = 100k\n.param TaperRatio_7 = table(Travel_7, 0,0, 0.1,0.18, 0.2,0.38, 0.3,0.58, 0.4,0.74, 0.5,0.85, 0.6,0.92, 0.7,0.96, 0.8,0.98, 0.9,0.99, 1,1)\n.param RV_12_7 = {max(R_Total_7 * TaperRatio_7, 0.01 * R_Total_7)}\n.param RV_23_7 = {max(R_Total_7 * (1 - TaperRatio_7), 0.01 * R_Total_7)}
TEXT -712 736 Left 2 ;PTD902-2215K-B103
TEXT -464 1584 Left 2 ;PTD904-2015K-C104
TEXT -1864 1296 Left 2 ;PTD902-1015K-B104
