Version 4.1
SHEET 1 1092 1212
WIRE -1232 -704 -1328 -704
WIRE -1088 -704 -1152 -704
WIRE -1008 -704 -1088 -704
WIRE -224 -704 -928 -704
WIRE -1328 -608 -1328 -704
WIRE -1328 -608 -1392 -608
WIRE -640 -608 -1328 -608
WIRE -528 -608 -560 -608
WIRE -496 -608 -528 -608
WIRE -224 -608 -224 -704
WIRE -224 -608 -416 -608
WIRE -224 -544 -224 -608
WIRE -224 -544 -464 -544
WIRE -144 -544 -224 -544
WIRE -464 -496 -464 -544
WIRE -384 -496 -464 -496
WIRE -272 -496 -320 -496
WIRE -528 -464 -528 -608
WIRE -384 -464 -528 -464
WIRE -640 -432 -672 -432
WIRE -528 -432 -560 -432
WIRE -384 -432 -528 -432
WIRE -528 -400 -528 -432
WIRE -384 -400 -432 -400
WIRE -1088 -368 -1088 -704
WIRE -1088 -368 -1296 -368
WIRE -1296 -288 -1296 -368
WIRE -528 -272 -528 -320
WIRE 160 -272 -528 -272
WIRE -1584 -192 -1728 -192
WIRE 1088 -160 -1248 -160
WIRE -1120 -112 -1184 -112
WIRE -896 -112 -1120 -112
WIRE -1728 -96 -1728 -192
WIRE -1184 -96 -1184 -112
WIRE -80 -96 -144 -96
WIRE 128 -96 -80 -96
WIRE 896 -96 832 -96
WIRE 1088 -96 1088 -160
WIRE 1088 -96 896 -96
WIRE -144 -80 -144 -96
WIRE 832 -80 832 -96
WIRE -512 -48 -768 -48
WIRE 464 -48 208 -48
WIRE -1120 -32 -1120 -112
WIRE -1088 -32 -1120 -32
WIRE -976 -32 -1024 -32
WIRE -80 -32 -80 -96
WIRE -48 -32 -80 -32
WIRE 64 -32 16 -32
WIRE 896 -32 896 -96
WIRE 928 -32 896 -32
WIRE 1040 -32 992 -32
WIRE -1584 0 -1584 -192
WIRE -1536 0 -1584 0
WIRE -1248 0 -1248 -80
WIRE -1248 0 -1456 0
WIRE -1184 0 -1184 -16
WIRE -1184 0 -1248 0
WIRE -1088 0 -1184 0
WIRE -896 0 -896 -112
WIRE -768 0 -768 -48
WIRE -768 0 -896 0
WIRE -672 0 -768 0
WIRE -512 0 -512 -48
WIRE -512 0 -592 0
WIRE -448 0 -512 0
WIRE -272 0 -368 0
WIRE -144 0 -144 -16
WIRE -144 0 -192 0
WIRE -48 0 -144 0
WIRE 128 0 128 -96
WIRE 144 0 128 0
WIRE 160 0 160 -272
WIRE 160 0 144 0
WIRE 208 0 208 -48
WIRE 208 0 160 0
WIRE 304 0 208 0
WIRE 464 0 464 -48
WIRE 464 0 384 0
WIRE 528 0 464 0
WIRE 704 0 608 0
WIRE 832 0 832 -16
WIRE 832 0 784 0
WIRE 928 0 832 0
WIRE -1296 32 -1296 -208
WIRE -1296 32 -1408 32
WIRE -1184 32 -1296 32
WIRE -1088 32 -1184 32
WIRE -48 32 -144 32
WIRE 928 32 832 32
WIRE -1728 48 -1728 -16
WIRE -1696 48 -1728 48
WIRE -1088 64 -1136 64
WIRE -48 64 -96 64
WIRE 928 64 880 64
WIRE -1536 112 -1584 112
WIRE -1408 112 -1408 32
WIRE -1408 112 -1456 112
WIRE -1728 128 -1728 48
WIRE -1184 192 -1184 32
WIRE -448 192 -1184 192
WIRE 144 192 144 0
WIRE 144 192 -368 192
WIRE -1728 304 -1728 208
WIRE -1584 304 -1584 112
WIRE -1584 304 -1728 304
FLAG -448 -1008 VIN
FLAG -448 -928 0
FLAG -320 -928 0
FLAG -224 -928 0
FLAG -320 -1008 V+
FLAG -224 -1008 V-
FLAG -432 -400 V-
FLAG -272 -496 V+
FLAG -672 -432 0
FLAG -144 -544 VOUT
FLAG -96 64 V-
FLAG 64 -32 V+
FLAG -1136 64 V-
FLAG -976 -32 V+
FLAG -144 32 0
FLAG 880 64 V-
FLAG 1040 -32 V+
FLAG 832 32 0
FLAG -1696 48 0
FLAG -1392 -608 VIN
SYMBOL voltage -448 -1024 R0
WINDOW 123 24 44 Left 2
WINDOW 39 0 0 Left 0
SYMATTR Value2 AC 1
SYMATTR InstName V1
SYMATTR Value ""
SYMBOL voltage -320 -1024 R0
SYMATTR InstName V2
SYMATTR Value 15
SYMBOL voltage -224 -1024 R0
SYMATTR InstName V3
SYMATTR Value -15
SYMBOL res -544 -448 R90
WINDOW 0 0 56 VBottom 2
WINDOW 3 32 56 VTop 2
SYMATTR InstName R6
SYMATTR Value 2.2k
SYMBOL res -544 -416 R0
SYMATTR InstName R7
SYMATTR Value 2.2k
SYMBOL res -544 -624 R90
WINDOW 0 0 56 VBottom 2
WINDOW 3 32 56 VTop 2
SYMATTR InstName R1
SYMATTR Value 4.7k
SYMBOL res -400 -624 R90
WINDOW 0 0 56 VBottom 2
WINDOW 3 32 56 VTop 2
SYMATTR InstName R2
SYMATTR Value 4.7k
SYMBOL cap -160 -80 R0
SYMATTR InstName C1
SYMATTR Value 10n
SYMBOL res -1200 -112 R0
SYMATTR InstName R8
SYMATTR Value 12k
SYMBOL res -176 -16 R90
WINDOW 0 0 56 VBottom 2
WINDOW 3 32 56 VTop 2
SYMATTR InstName R3
SYMATTR Value 6.8k
SYMBOL res -688 16 R270
WINDOW 0 32 56 VTop 2
WINDOW 3 0 56 VBottom 2
SYMATTR InstName RG2
SYMATTR Value {100k*(1-posF)+20}
SYMBOL res -352 16 M270
WINDOW 0 32 56 VTop 2
WINDOW 3 0 56 VBottom 2
SYMATTR InstName RV2
SYMATTR Value {100k*posF+20}
SYMBOL cap 816 -80 R0
SYMATTR InstName C2
SYMATTR Value 47n
SYMBOL res 800 -16 R90
WINDOW 0 0 56 VBottom 2
WINDOW 3 32 56 VTop 2
SYMATTR InstName R12
SYMATTR Value 6.8k
SYMBOL res 288 16 R270
WINDOW 0 32 56 VTop 2
WINDOW 3 0 56 VBottom 2
SYMATTR InstName RG3
SYMATTR Value {100k*(1-posF)+20}
SYMBOL res 624 16 M270
WINDOW 0 32 56 VTop 2
WINDOW 3 0 56 VBottom 2
SYMATTR InstName RV3
SYMATTR Value {100k*posF+20}
SYMBOL res -352 176 R90
WINDOW 0 0 56 VBottom 2
WINDOW 3 32 56 VTop 2
SYMATTR InstName R5
SYMATTR Value 4.7k
SYMBOL res -1440 -16 R90
WINDOW 0 0 56 VBottom 2
WINDOW 3 32 56 VTop 2
SYMATTR InstName R11
SYMATTR Value 4.7k
SYMBOL res -1440 96 R90
WINDOW 0 0 56 VBottom 2
WINDOW 3 32 56 VTop 2
SYMATTR InstName R10
SYMATTR Value 470
SYMBOL res -1712 -112 M0
SYMATTR InstName RG4
SYMATTR Value {100k*(1-posQ)+20}
SYMBOL res -1712 224 R180
WINDOW 0 36 76 Left 2
WINDOW 3 36 40 Left 2
SYMATTR InstName RV4
SYMATTR Value {100k*posQ+20}
SYMBOL res -1248 -688 R270
WINDOW 0 32 56 VTop 2
WINDOW 3 0 56 VBottom 2
SYMATTR InstName RG1
SYMATTR Value {10k*(1-posA)+20}
SYMBOL res -912 -688 M270
WINDOW 0 32 56 VTop 2
WINDOW 3 0 56 VBottom 2
SYMATTR InstName RV1
SYMATTR Value {10k*posA+20}
SYMBOL res -1312 -304 R0
SYMATTR InstName R4
SYMATTR Value 1k
SYMBOL res -1264 -176 R0
SYMATTR InstName R9
SYMATTR Value 12k
SYMBOL AudioProject\\TL072 960 16 R0
SYMATTR InstName U1
SYMBOL AudioProject\\TL072 -16 16 R0
SYMATTR InstName U2
SYMBOL AudioProject\\TL072 -1056 16 R0
SYMATTR InstName U3
SYMBOL AudioProject\\TL072 -352 -448 R0
SYMATTR InstName U4
TEXT -480 -1112 Left 2 !.ac oct 100 10 100k
TEXT -88 -1120 Left 2 !.step param posQ list 0 0.1 0.5 1
TEXT -88 -976 Left 2 ;.param posQ = 0.5
TEXT -88 -952 Left 2 ;.param posF = 0.25
TEXT -88 -928 Left 2 ;.param posA = 1
TEXT -88 -1096 Left 2 !.step param posF list 0 0.25 1
TEXT -88 -1072 Left 2 !.step param posA list 0 0.05 0.25 0.75 0.95 1
TEXT 464 -1128 Left 2 ;RLOG C\nRLOG C\nLIN  A
